<?xml version="1.0" encoding="UTF-8"?>
<!-- generated on 2019-03-11 10:07:57.284211 by $Id$
  options: -n random.net.xml -t taz.shape.add.xml -o complete.taz.xml
-->
<tazs xmlns:xsi="http://www.w3.org/2001/XMLSchema-instance" xsi:noNamespaceSchemaLocation="http://sumo.dlr.de/xsd/taz_file.xsd">
    <taz id="1" edges="-1010 -1016 -1022 -11 -1130 -1132 -1133 -1237 -1239 -1247 -1248 -1258 -1259 -1263 -1267 -1281 -1487 -1489 -1490 -1494 -1498 -15 -1514 -1522 -1524 -158 -1634 -1740 -1750 -1754 -1762 -1766 -1870 -1872 -1873 -1881 -1883 -19 -1991 -1992 -1994 -2016 -21 -2124 -2227 -2231 -2235 -23 -2338 -2340 -2341 -2345 -2346 -2347 -2349 -2353 -2354 -2370 -2372 -2384 -2386 -2388 -2396 -2397 -24 -2503 -2505 -26 -2609 -2625 -2635 -268 -27 -2738 -2739 -2740 -2748 -2858 -29 -2962 -2964 -2965 -3 -3068 -3072 -3080 -3081 -3083 -3087 -3191 -3195 -3199 -3302 -3308 -3411 -3515 -3517 -3518 -3530 -3538 -3539 -3541 -3543 -3544 -3554 -3555 -3557 -3558 -3559 -3565 -3671 -3681 -372 -373 -3784 -379 -3794 -3795 -3797 -3799 -381 -382 -386 -3903 -3905 -3919 -400 -402 -4022 -4026 -4027 -4045 -41 -412 -4149 -4151 -42 -4254 -4260 -4274 -4275 -4279 -4291 -4297 -43 -4403 -4507 -4525 -4529 -4531 -4533 -4539 -4642 -4646 -4650 -4652 -4664 -4665 -4666 -4672 -4673 -4675 -4681 -4682 -4686 -4687 -4793 -4794 -4808 -4809 -4811 -4817 -49 -4920 -4922 -4940 -4942 -4948 -5 -5052 -51 -5156 -5162 -518 -52 -520 -5272 -5398 -5506 -5510 -5514 -5515 -5517 -5620 -5626 -5650 -5754 -5760 -5762 -5763 -5767 -5773 -5781 -5787 -5791 -5799 -5903 -5904 -5910 -5911 -5931 -6034 -6036 -6040 -6041 -6045 -6049 -6152 -6255 -6261 -6373 -6377 -648 -6483 -6586 -6590 -6598 -6710 -6726 -6727 -6728 -6729 -6731 -6733 -6739 -6759 -6862 -6866 -6880 -6892 -6894 -6900 -6902 -6904 -6914 -6915 -6919 -7022 -7026 -7028 -7030 -7040 -7046 -7047 -7051 -7057 -7161 -7264 -7272 -752 -754 -780 -781 -782 -784 -788 -894 -906 1010 1016 1022 11 1130 1132 1133 1237 1239 1247 1248 1258 1259 1263 1267 1281 1487 1489 1490 1494 1498 15 1514 1522 1524 158 1634 1740 1750 1754 1762 1766 1870 1872 1873 1881 1883 19 1991 1992 1994 2016 21 2124 2227 2231 2235 23 2338 2340 2341 2345 2346 2347 2349 2353 2354 2370 2372 2384 2386 2388 2396 2397 24 2503 2505 26 2609 2625 2635 268 27 2738 2739 2740 2748 2858 29 2962 2964 2965 3 3068 3072 3080 3081 3083 3087 3191 3195 3199 3302 3308 3411 3515 3517 3518 3530 3538 3539 3541 3543 3544 3554 3555 3557 3558 3559 3565 3671 3681 372 373 3784 379 3794 3795 3797 3799 381 382 386 3903 3905 3919 400 402 4022 4026 4027 4045 41 412 4149 4151 42 4254 4260 4274 4275 4279 4291 4297 43 4403 4507 4525 4529 4531 4533 4539 4642 4646 4650 4652 4664 4665 4666 4672 4673 4675 4681 4682 4686 4687 4793 4794 4808 4809 4811 4817 49 4920 4922 4940 4942 4948 5 5052 51 5156 5162 518 52 520 5272 5398 5506 5510 5514 5515 5517 5620 5626 5650 5754 5760 5762 5763 5767 5773 5781 5787 5791 5799 5903 5904 5910 5911 5931 6034 6036 6040 6041 6045 6049 6152 6255 6261 6373 6377 648 6483 6586 6590 6598 6710 6726 6727 6728 6729 6731 6733 6739 6759 6862 6866 6880 6892 6894 6900 6902 6904 6914 6915 6919 7022 7026 7028 7030 7040 7046 7047 7051 7057 7161 7264 7272 752 754 780 781 782 784 788 894 906"/>
</tazs>
