<?xml version="1.0" encoding="UTF-8"?>

<configuration xmlns:xsi="http://www.w3.org/2001/XMLSchema-instance" xsi:noNamespaceSchemaLocation="http://sumo.dlr.de/xsd/sumoConfiguration.xsd">

    <input>
        <net-file value="random.net.xml"/>
        <route-files value="rou/buses.flows.xml,rou/metro.flows.xml"/>
        <additional-files value="busStops.add.xml,metroStops.add.xml,basic.vType.xml"/>
    </input>

    <routing>
        <persontrip.transfer.car-walk value="parkingAreas,ptStops"/>
    </routing>

    <random_number>
        <seed value="42"/>
    </random_number>

</configuration>
