<?xml version="1.0" encoding="UTF-8"?>
<!-- generated on 2020-02-24 10:02:34.552980 by generateParkingAreaRerouters.py v1_5_0+0227-b63356c94d
  options: -a parkingArea.add.xml -n random.net.xml <doubleminus>max-number-alternatives 10 <doubleminus>max-distance-alternatives 1000 <doubleminus>min-capacity-visibility-true 1 <doubleminus>max-distance-visibility-true 2000 <doubleminus>processes 5 <doubleminus>tqdm -o parkingAreaRerouters.add.xml
-->
<additional>

    <rerouter id="parkingArea_-1010" edges="-1010">
        <interval begin="0.0" end="86400">
            <!-- in order of distance -->
            <parkingAreaReroute id="parkingArea_-1010" visible="true"/> <!-- dist: 0.0 -->
            <parkingAreaReroute id="parkingArea_1022" visible="true"/> <!-- dist: 358.04 -->
            <parkingAreaReroute id="parkingArea_1016" visible="true"/> <!-- dist: 360.3 -->
            <parkingAreaReroute id="parkingArea_-648" visible="true"/> <!-- dist: 368.63 -->
            <parkingAreaReroute id="parkingArea_1490" visible="true"/> <!-- dist: 534.0600000000001 -->
            <parkingAreaReroute id="parkingArea_1498" visible="true"/> <!-- dist: 537.5600000000001 -->
            <parkingAreaReroute id="parkingArea_1487" visible="false"/> <!-- dist: 540.63 -->
            <parkingAreaReroute id="parkingArea_1494" visible="false"/> <!-- dist: 542.98 -->
            <parkingAreaReroute id="parkingArea_1489" visible="false"/> <!-- dist: 544.3 -->
            <parkingAreaReroute id="parkingArea_-386" visible="false"/> <!-- dist: 562.8 -->
            <parkingAreaReroute id="parkingArea_2858" visible="false"/> <!-- dist: 713.01 -->
        </interval>
    </rerouter>

    <rerouter id="parkingArea_-1016" edges="-1016">
        <interval begin="0.0" end="86400">
            <!-- in order of distance -->
            <parkingAreaReroute id="parkingArea_-1016" visible="true"/> <!-- dist: 0.0 -->
            <parkingAreaReroute id="parkingArea_1022" visible="true"/> <!-- dist: 355.3 -->
            <parkingAreaReroute id="parkingArea_1010" visible="true"/> <!-- dist: 360.3 -->
            <parkingAreaReroute id="parkingArea_-648" visible="true"/> <!-- dist: 365.89 -->
            <parkingAreaReroute id="parkingArea_1490" visible="true"/> <!-- dist: 531.32 -->
            <parkingAreaReroute id="parkingArea_1498" visible="true"/> <!-- dist: 534.82 -->
            <parkingAreaReroute id="parkingArea_1991" visible="false"/> <!-- dist: 540.1600000000001 -->
            <parkingAreaReroute id="parkingArea_1494" visible="false"/> <!-- dist: 540.24 -->
            <parkingAreaReroute id="parkingArea_1992" visible="false"/> <!-- dist: 543.77 -->
            <parkingAreaReroute id="parkingArea_-386" visible="false"/> <!-- dist: 560.06 -->
            <parkingAreaReroute id="parkingArea_2858" visible="false"/> <!-- dist: 710.27 -->
        </interval>
    </rerouter>

    <rerouter id="parkingArea_-1022" edges="-1022">
        <interval begin="0.0" end="86400">
            <!-- in order of distance -->
            <parkingAreaReroute id="parkingArea_-1022" visible="true"/> <!-- dist: 0.0 -->
            <parkingAreaReroute id="parkingArea_1016" visible="true"/> <!-- dist: 355.3 -->
            <parkingAreaReroute id="parkingArea_1010" visible="true"/> <!-- dist: 358.04 -->
            <parkingAreaReroute id="parkingArea_-648" visible="true"/> <!-- dist: 363.63 -->
            <parkingAreaReroute id="parkingArea_1487" visible="true"/> <!-- dist: 535.63 -->
            <parkingAreaReroute id="parkingArea_1991" visible="true"/> <!-- dist: 537.9000000000001 -->
            <parkingAreaReroute id="parkingArea_1489" visible="true"/> <!-- dist: 539.3 -->
            <parkingAreaReroute id="parkingArea_1992" visible="false"/> <!-- dist: 541.51 -->
            <parkingAreaReroute id="parkingArea_-386" visible="false"/> <!-- dist: 557.8 -->
            <parkingAreaReroute id="parkingArea_2016" visible="false"/> <!-- dist: 713.34 -->
            <parkingAreaReroute id="parkingArea_1994" visible="false"/> <!-- dist: 714.05 -->
        </interval>
    </rerouter>

    <rerouter id="parkingArea_-11" edges="-11">
        <interval begin="0.0" end="86400">
            <!-- in order of distance -->
            <parkingAreaReroute id="parkingArea_-11" visible="true"/> <!-- dist: 0.0 -->
            <parkingAreaReroute id="parkingArea_15" visible="true"/> <!-- dist: 359.53 -->
            <parkingAreaReroute id="parkingArea_3" visible="true"/> <!-- dist: 360.05999999999995 -->
            <parkingAreaReroute id="parkingArea_5" visible="true"/> <!-- dist: 360.26 -->
            <parkingAreaReroute id="parkingArea_43" visible="true"/> <!-- dist: 533.48 -->
            <parkingAreaReroute id="parkingArea_19" visible="true"/> <!-- dist: 538.26 -->
            <parkingAreaReroute id="parkingArea_23" visible="true"/> <!-- dist: 539.0 -->
            <parkingAreaReroute id="parkingArea_24" visible="false"/> <!-- dist: 540.13 -->
            <parkingAreaReroute id="parkingArea_26" visible="false"/> <!-- dist: 541.0799999999999 -->
            <parkingAreaReroute id="parkingArea_42" visible="false"/> <!-- dist: 542.92 -->
            <parkingAreaReroute id="parkingArea_21" visible="false"/> <!-- dist: 545.3399999999999 -->
        </interval>
    </rerouter>

    <rerouter id="parkingArea_-1130" edges="-1130">
        <interval begin="0.0" end="86400">
            <!-- in order of distance -->
            <parkingAreaReroute id="parkingArea_-1130" visible="true"/> <!-- dist: 0.0 -->
            <parkingAreaReroute id="parkingArea_-752" visible="true"/> <!-- dist: 356.08000000000004 -->
            <parkingAreaReroute id="parkingArea_1132" visible="true"/> <!-- dist: 360.21000000000004 -->
            <parkingAreaReroute id="parkingArea_-402" visible="true"/> <!-- dist: 533.75 -->
            <parkingAreaReroute id="parkingArea_780" visible="true"/> <!-- dist: 533.7900000000001 -->
            <parkingAreaReroute id="parkingArea_754" visible="true"/> <!-- dist: 538.44 -->
            <parkingAreaReroute id="parkingArea_2340" visible="true"/> <!-- dist: 539.45 -->
            <parkingAreaReroute id="parkingArea_2338" visible="false"/> <!-- dist: 540.47 -->
            <parkingAreaReroute id="parkingArea_412" visible="false"/> <!-- dist: 701.5699999999999 -->
            <parkingAreaReroute id="parkingArea_-382" visible="false"/> <!-- dist: 711.9 -->
            <parkingAreaReroute id="parkingArea_3681" visible="false"/> <!-- dist: 712.6600000000001 -->
        </interval>
    </rerouter>

    <rerouter id="parkingArea_-1132" edges="-1132">
        <interval begin="0.0" end="86400">
            <!-- in order of distance -->
            <parkingAreaReroute id="parkingArea_-1132" visible="true"/> <!-- dist: 0.0 -->
            <parkingAreaReroute id="parkingArea_1130" visible="true"/> <!-- dist: 360.21000000000004 -->
            <parkingAreaReroute id="parkingArea_-752" visible="true"/> <!-- dist: 363.73 -->
            <parkingAreaReroute id="parkingArea_-402" visible="false"/> <!-- dist: 541.4 -->
            <parkingAreaReroute id="parkingArea_780" visible="false"/> <!-- dist: 541.44 -->
            <parkingAreaReroute id="parkingArea_1524" visible="false"/> <!-- dist: 543.95 -->
            <parkingAreaReroute id="parkingArea_-1133" visible="false"/> <!-- dist: 544.32 -->
            <parkingAreaReroute id="parkingArea_754" visible="false"/> <!-- dist: 546.09 -->
            <parkingAreaReroute id="parkingArea_1522" visible="false"/> <!-- dist: 552.76 -->
            <parkingAreaReroute id="parkingArea_412" visible="false"/> <!-- dist: 709.22 -->
            <parkingAreaReroute id="parkingArea_-382" visible="false"/> <!-- dist: 719.55 -->
        </interval>
    </rerouter>

    <rerouter id="parkingArea_-1133" edges="-1133">
        <interval begin="0.0" end="86400">
            <!-- in order of distance -->
            <parkingAreaReroute id="parkingArea_-1133" visible="true"/> <!-- dist: 0.0 -->
            <parkingAreaReroute id="parkingArea_-754" visible="true"/> <!-- dist: 366.47 -->
            <parkingAreaReroute id="parkingArea_-402" visible="false"/> <!-- dist: 544.14 -->
            <parkingAreaReroute id="parkingArea_780" visible="false"/> <!-- dist: 544.1800000000001 -->
            <parkingAreaReroute id="parkingArea_752" visible="false"/> <!-- dist: 546.27 -->
            <parkingAreaReroute id="parkingArea_412" visible="false"/> <!-- dist: 711.96 -->
            <parkingAreaReroute id="parkingArea_-382" visible="false"/> <!-- dist: 722.29 -->
            <parkingAreaReroute id="parkingArea_1130" visible="false"/> <!-- dist: 722.55 -->
            <parkingAreaReroute id="parkingArea_-782" visible="false"/> <!-- dist: 726.1100000000001 -->
            <parkingAreaReroute id="parkingArea_1634" visible="false"/> <!-- dist: 726.4300000000001 -->
            <parkingAreaReroute id="parkingArea_-51" visible="false"/> <!-- dist: 727.74 -->
        </interval>
    </rerouter>

    <rerouter id="parkingArea_-1237" edges="-1237">
        <interval begin="0.0" end="86400">
            <!-- in order of distance -->
            <parkingAreaReroute id="parkingArea_-1237" visible="true"/> <!-- dist: 0.0 -->
            <parkingAreaReroute id="parkingArea_-784" visible="true"/> <!-- dist: 358.99 -->
            <parkingAreaReroute id="parkingArea_1247" visible="true"/> <!-- dist: 359.08 -->
            <parkingAreaReroute id="parkingArea_1239" visible="true"/> <!-- dist: 362.7 -->
            <parkingAreaReroute id="parkingArea_1750" visible="true"/> <!-- dist: 537.28 -->
            <parkingAreaReroute id="parkingArea_1754" visible="true"/> <!-- dist: 537.41 -->
            <parkingAreaReroute id="parkingArea_788" visible="true"/> <!-- dist: 538.26 -->
            <parkingAreaReroute id="parkingArea_-1248" visible="true"/> <!-- dist: 539.11 -->
            <parkingAreaReroute id="parkingArea_1740" visible="false"/> <!-- dist: 543.86 -->
            <parkingAreaReroute id="parkingArea_-372" visible="false"/> <!-- dist: 545.11 -->
            <parkingAreaReroute id="parkingArea_2372" visible="false"/> <!-- dist: 711.64 -->
        </interval>
    </rerouter>

    <rerouter id="parkingArea_-1239" edges="-1239">
        <interval begin="0.0" end="86400">
            <!-- in order of distance -->
            <parkingAreaReroute id="parkingArea_-1239" visible="true"/> <!-- dist: 0.0 -->
            <parkingAreaReroute id="parkingArea_-784" visible="true"/> <!-- dist: 356.49 -->
            <parkingAreaReroute id="parkingArea_1247" visible="true"/> <!-- dist: 356.58 -->
            <parkingAreaReroute id="parkingArea_1237" visible="true"/> <!-- dist: 362.7 -->
            <parkingAreaReroute id="parkingArea_1754" visible="true"/> <!-- dist: 534.91 -->
            <parkingAreaReroute id="parkingArea_788" visible="true"/> <!-- dist: 535.76 -->
            <parkingAreaReroute id="parkingArea_-1248" visible="true"/> <!-- dist: 536.61 -->
            <parkingAreaReroute id="parkingArea_-372" visible="false"/> <!-- dist: 542.61 -->
            <parkingAreaReroute id="parkingArea_2346" visible="false"/> <!-- dist: 545.0 -->
            <parkingAreaReroute id="parkingArea_2347" visible="false"/> <!-- dist: 545.5799999999999 -->
            <parkingAreaReroute id="parkingArea_2372" visible="false"/> <!-- dist: 709.14 -->
        </interval>
    </rerouter>

    <rerouter id="parkingArea_-1247" edges="-1247">
        <interval begin="0.0" end="86400">
            <!-- in order of distance -->
            <parkingAreaReroute id="parkingArea_-1247" visible="true"/> <!-- dist: 0.0 -->
            <parkingAreaReroute id="parkingArea_-784" visible="true"/> <!-- dist: 352.87 -->
            <parkingAreaReroute id="parkingArea_1239" visible="true"/> <!-- dist: 356.58 -->
            <parkingAreaReroute id="parkingArea_1237" visible="true"/> <!-- dist: 359.08 -->
            <parkingAreaReroute id="parkingArea_1750" visible="true"/> <!-- dist: 531.16 -->
            <parkingAreaReroute id="parkingArea_788" visible="true"/> <!-- dist: 532.14 -->
            <parkingAreaReroute id="parkingArea_1740" visible="true"/> <!-- dist: 537.74 -->
            <parkingAreaReroute id="parkingArea_-372" visible="true"/> <!-- dist: 538.99 -->
            <parkingAreaReroute id="parkingArea_2346" visible="false"/> <!-- dist: 541.38 -->
            <parkingAreaReroute id="parkingArea_2347" visible="false"/> <!-- dist: 541.96 -->
            <parkingAreaReroute id="parkingArea_2354" visible="false"/> <!-- dist: 708.46 -->
        </interval>
    </rerouter>

    <rerouter id="parkingArea_-1248" edges="-1248">
        <interval begin="0.0" end="86400">
            <!-- in order of distance -->
            <parkingAreaReroute id="parkingArea_-1248" visible="true"/> <!-- dist: 0.0 -->
            <parkingAreaReroute id="parkingArea_-788" visible="true"/> <!-- dist: 359.3 -->
            <parkingAreaReroute id="parkingArea_1258" visible="true"/> <!-- dist: 362.85 -->
            <parkingAreaReroute id="parkingArea_784" visible="true"/> <!-- dist: 535.69 -->
            <parkingAreaReroute id="parkingArea_1762" visible="true"/> <!-- dist: 537.75 -->
            <parkingAreaReroute id="parkingArea_1766" visible="false"/> <!-- dist: 544.49 -->
            <parkingAreaReroute id="parkingArea_-372" visible="false"/> <!-- dist: 545.4200000000001 -->
            <parkingAreaReroute id="parkingArea_1247" visible="false"/> <!-- dist: 712.1700000000001 -->
            <parkingAreaReroute id="parkingArea_2396" visible="false"/> <!-- dist: 714.56 -->
            <parkingAreaReroute id="parkingArea_2386" visible="false"/> <!-- dist: 715.29 -->
            <parkingAreaReroute id="parkingArea_1239" visible="false"/> <!-- dist: 715.7900000000001 -->
        </interval>
    </rerouter>

    <rerouter id="parkingArea_-1258" edges="-1258">
        <interval begin="0.0" end="86400">
            <!-- in order of distance -->
            <parkingAreaReroute id="parkingArea_-1258" visible="true"/> <!-- dist: 0.0 -->
            <parkingAreaReroute id="parkingArea_-788" visible="true"/> <!-- dist: 362.09000000000003 -->
            <parkingAreaReroute id="parkingArea_1248" visible="true"/> <!-- dist: 362.85 -->
            <parkingAreaReroute id="parkingArea_784" visible="true"/> <!-- dist: 538.48 -->
            <parkingAreaReroute id="parkingArea_-1247" visible="true"/> <!-- dist: 539.33 -->
            <parkingAreaReroute id="parkingArea_1754" visible="false"/> <!-- dist: 541.1800000000001 -->
            <parkingAreaReroute id="parkingArea_-372" visible="false"/> <!-- dist: 548.21 -->
            <parkingAreaReroute id="parkingArea_1247" visible="false"/> <!-- dist: 714.96 -->
            <parkingAreaReroute id="parkingArea_2372" visible="false"/> <!-- dist: 715.4100000000001 -->
            <parkingAreaReroute id="parkingArea_-784" visible="false"/> <!-- dist: 715.72 -->
            <parkingAreaReroute id="parkingArea_1239" visible="false"/> <!-- dist: 718.58 -->
        </interval>
    </rerouter>

    <rerouter id="parkingArea_-1259" edges="-1259">
        <interval begin="0.0" end="86400">
            <!-- in order of distance -->
            <parkingAreaReroute id="parkingArea_-1259" visible="true"/> <!-- dist: 0.0 -->
            <parkingAreaReroute id="parkingArea_-518" visible="true"/> <!-- dist: 357.51 -->
            <parkingAreaReroute id="parkingArea_1267" visible="true"/> <!-- dist: 358.38 -->
            <parkingAreaReroute id="parkingArea_1263" visible="true"/> <!-- dist: 363.1 -->
            <parkingAreaReroute id="parkingArea_-379" visible="true"/> <!-- dist: 536.81 -->
            <parkingAreaReroute id="parkingArea_520" visible="true"/> <!-- dist: 537.8299999999999 -->
            <parkingAreaReroute id="parkingArea_1870" visible="true"/> <!-- dist: 538.55 -->
            <parkingAreaReroute id="parkingArea_1872" visible="false"/> <!-- dist: 543.0 -->
            <parkingAreaReroute id="parkingArea_3411" visible="false"/> <!-- dist: 546.51 -->
            <parkingAreaReroute id="parkingArea_906" visible="false"/> <!-- dist: 715.27 -->
            <parkingAreaReroute id="parkingArea_2503" visible="false"/> <!-- dist: 716.89 -->
        </interval>
    </rerouter>

    <rerouter id="parkingArea_-1263" edges="-1263">
        <interval begin="0.0" end="86400">
            <!-- in order of distance -->
            <parkingAreaReroute id="parkingArea_-1263" visible="true"/> <!-- dist: 0.0 -->
            <parkingAreaReroute id="parkingArea_-518" visible="true"/> <!-- dist: 360.19 -->
            <parkingAreaReroute id="parkingArea_1267" visible="true"/> <!-- dist: 361.05999999999995 -->
            <parkingAreaReroute id="parkingArea_1259" visible="true"/> <!-- dist: 363.1 -->
            <parkingAreaReroute id="parkingArea_-379" visible="true"/> <!-- dist: 539.49 -->
            <parkingAreaReroute id="parkingArea_520" visible="false"/> <!-- dist: 540.51 -->
            <parkingAreaReroute id="parkingArea_-906" visible="false"/> <!-- dist: 540.54 -->
            <parkingAreaReroute id="parkingArea_-3539" visible="false"/> <!-- dist: 540.7 -->
            <parkingAreaReroute id="parkingArea_1870" visible="false"/> <!-- dist: 541.2299999999999 -->
            <parkingAreaReroute id="parkingArea_-1873" visible="false"/> <!-- dist: 542.09 -->
            <parkingAreaReroute id="parkingArea_1872" visible="false"/> <!-- dist: 545.68 -->
        </interval>
    </rerouter>

    <rerouter id="parkingArea_-1267" edges="-1267">
        <interval begin="0.0" end="86400">
            <!-- in order of distance -->
            <parkingAreaReroute id="parkingArea_-1267" visible="true"/> <!-- dist: 0.0 -->
            <parkingAreaReroute id="parkingArea_-518" visible="true"/> <!-- dist: 355.47 -->
            <parkingAreaReroute id="parkingArea_1259" visible="true"/> <!-- dist: 358.38 -->
            <parkingAreaReroute id="parkingArea_1263" visible="true"/> <!-- dist: 361.05999999999995 -->
            <parkingAreaReroute id="parkingArea_-379" visible="true"/> <!-- dist: 534.77 -->
            <parkingAreaReroute id="parkingArea_520" visible="true"/> <!-- dist: 535.79 -->
            <parkingAreaReroute id="parkingArea_-906" visible="true"/> <!-- dist: 535.8199999999999 -->
            <parkingAreaReroute id="parkingArea_-3539" visible="true"/> <!-- dist: 535.98 -->
            <parkingAreaReroute id="parkingArea_-1873" visible="true"/> <!-- dist: 537.37 -->
            <parkingAreaReroute id="parkingArea_3411" visible="false"/> <!-- dist: 544.4699999999999 -->
            <parkingAreaReroute id="parkingArea_906" visible="false"/> <!-- dist: 713.23 -->
        </interval>
    </rerouter>

    <rerouter id="parkingArea_-1281" edges="-1281">
        <interval begin="0.0" end="86400">
            <!-- in order of distance -->
            <parkingAreaReroute id="parkingArea_-1281" visible="true"/> <!-- dist: 0.0 -->
            <parkingAreaReroute id="parkingArea_-894" visible="true"/> <!-- dist: 356.17999999999995 -->
            <parkingAreaReroute id="parkingArea_906" visible="true"/> <!-- dist: 533.6199999999999 -->
            <parkingAreaReroute id="parkingArea_-520" visible="true"/> <!-- dist: 536.5 -->
            <parkingAreaReroute id="parkingArea_-3539" visible="false"/> <!-- dist: 711.2199999999999 -->
            <parkingAreaReroute id="parkingArea_-1873" visible="false"/> <!-- dist: 712.6099999999999 -->
            <parkingAreaReroute id="parkingArea_518" visible="false"/> <!-- dist: 713.8 -->
            <parkingAreaReroute id="parkingArea_-1259" visible="false"/> <!-- dist: 713.8299999999999 -->
            <parkingAreaReroute id="parkingArea_-379" visible="false"/> <!-- dist: 715.8 -->
            <parkingAreaReroute id="parkingArea_-2609" visible="false"/> <!-- dist: 889.54 -->
            <parkingAreaReroute id="parkingArea_-518" visible="false"/> <!-- dist: 891.1299999999999 -->
        </interval>
    </rerouter>

    <rerouter id="parkingArea_-1487" edges="-1487">
        <interval begin="0.0" end="86400">
            <!-- in order of distance -->
            <parkingAreaReroute id="parkingArea_-1487" visible="true"/> <!-- dist: 0.0 -->
            <parkingAreaReroute id="parkingArea_-1016" visible="true"/> <!-- dist: 359.11 -->
            <parkingAreaReroute id="parkingArea_1489" visible="true"/> <!-- dist: 364.33000000000004 -->
            <parkingAreaReroute id="parkingArea_1022" visible="true"/> <!-- dist: 535.63 -->
            <parkingAreaReroute id="parkingArea_-1490" visible="false"/> <!-- dist: 540.35 -->
            <parkingAreaReroute id="parkingArea_1010" visible="false"/> <!-- dist: 540.63 -->
            <parkingAreaReroute id="parkingArea_2858" visible="false"/> <!-- dist: 543.28 -->
            <parkingAreaReroute id="parkingArea_-2740" visible="false"/> <!-- dist: 543.62 -->
            <parkingAreaReroute id="parkingArea_-648" visible="false"/> <!-- dist: 546.22 -->
            <parkingAreaReroute id="parkingArea_1490" visible="false"/> <!-- dist: 711.65 -->
            <parkingAreaReroute id="parkingArea_1498" visible="false"/> <!-- dist: 715.15 -->
        </interval>
    </rerouter>

    <rerouter id="parkingArea_-1489" edges="-1489">
        <interval begin="0.0" end="86400">
            <!-- in order of distance -->
            <parkingAreaReroute id="parkingArea_-1489" visible="true"/> <!-- dist: 0.0 -->
            <parkingAreaReroute id="parkingArea_-1016" visible="true"/> <!-- dist: 362.78 -->
            <parkingAreaReroute id="parkingArea_1487" visible="true"/> <!-- dist: 364.33000000000004 -->
            <parkingAreaReroute id="parkingArea_1022" visible="true"/> <!-- dist: 539.3 -->
            <parkingAreaReroute id="parkingArea_2016" visible="false"/> <!-- dist: 542.0400000000001 -->
            <parkingAreaReroute id="parkingArea_1994" visible="false"/> <!-- dist: 542.75 -->
            <parkingAreaReroute id="parkingArea_1010" visible="false"/> <!-- dist: 544.3 -->
            <parkingAreaReroute id="parkingArea_-648" visible="false"/> <!-- dist: 549.89 -->
            <parkingAreaReroute id="parkingArea_1490" visible="false"/> <!-- dist: 715.3199999999999 -->
            <parkingAreaReroute id="parkingArea_1498" visible="false"/> <!-- dist: 718.8199999999999 -->
            <parkingAreaReroute id="parkingArea_-2738" visible="false"/> <!-- dist: 719.3800000000001 -->
        </interval>
    </rerouter>

    <rerouter id="parkingArea_-1490" edges="-1490">
        <interval begin="0.0" end="86400">
            <!-- in order of distance -->
            <parkingAreaReroute id="parkingArea_-1490" visible="true"/> <!-- dist: 0.0 -->
            <parkingAreaReroute id="parkingArea_-1022" visible="true"/> <!-- dist: 352.54 -->
            <parkingAreaReroute id="parkingArea_1498" visible="true"/> <!-- dist: 355.54 -->
            <parkingAreaReroute id="parkingArea_1494" visible="true"/> <!-- dist: 360.96000000000004 -->
            <parkingAreaReroute id="parkingArea_1016" visible="true"/> <!-- dist: 531.32 -->
            <parkingAreaReroute id="parkingArea_1010" visible="true"/> <!-- dist: 534.0600000000001 -->
            <parkingAreaReroute id="parkingArea_-3559" visible="true"/> <!-- dist: 534.4300000000001 -->
            <parkingAreaReroute id="parkingArea_3565" visible="true"/> <!-- dist: 534.53 -->
            <parkingAreaReroute id="parkingArea_-648" visible="true"/> <!-- dist: 539.6500000000001 -->
            <parkingAreaReroute id="parkingArea_2124" visible="false"/> <!-- dist: 543.69 -->
            <parkingAreaReroute id="parkingArea_1487" visible="false"/> <!-- dist: 711.6500000000001 -->
        </interval>
    </rerouter>

    <rerouter id="parkingArea_-1494" edges="-1494">
        <interval begin="0.0" end="86400">
            <!-- in order of distance -->
            <parkingAreaReroute id="parkingArea_-1494" visible="true"/> <!-- dist: 0.0 -->
            <parkingAreaReroute id="parkingArea_1490" visible="true"/> <!-- dist: 360.96000000000004 -->
            <parkingAreaReroute id="parkingArea_-1022" visible="true"/> <!-- dist: 361.46000000000004 -->
            <parkingAreaReroute id="parkingArea_1498" visible="true"/> <!-- dist: 364.46000000000004 -->
            <parkingAreaReroute id="parkingArea_2858" visible="true"/> <!-- dist: 539.9100000000001 -->
            <parkingAreaReroute id="parkingArea_1016" visible="false"/> <!-- dist: 540.24 -->
            <parkingAreaReroute id="parkingArea_-2740" visible="false"/> <!-- dist: 540.25 -->
            <parkingAreaReroute id="parkingArea_1010" visible="false"/> <!-- dist: 542.98 -->
            <parkingAreaReroute id="parkingArea_-3559" visible="false"/> <!-- dist: 543.35 -->
            <parkingAreaReroute id="parkingArea_3565" visible="false"/> <!-- dist: 543.45 -->
            <parkingAreaReroute id="parkingArea_-1489" visible="false"/> <!-- dist: 544.96 -->
        </interval>
    </rerouter>

    <rerouter id="parkingArea_-1498" edges="-1498">
        <interval begin="0.0" end="86400">
            <!-- in order of distance -->
            <parkingAreaReroute id="parkingArea_-1498" visible="true"/> <!-- dist: 0.0 -->
            <parkingAreaReroute id="parkingArea_1490" visible="true"/> <!-- dist: 355.54 -->
            <parkingAreaReroute id="parkingArea_-1022" visible="true"/> <!-- dist: 356.04 -->
            <parkingAreaReroute id="parkingArea_1494" visible="true"/> <!-- dist: 364.46000000000004 -->
            <parkingAreaReroute id="parkingArea_2858" visible="true"/> <!-- dist: 534.49 -->
            <parkingAreaReroute id="parkingArea_1016" visible="true"/> <!-- dist: 534.82 -->
            <parkingAreaReroute id="parkingArea_-2740" visible="true"/> <!-- dist: 534.83 -->
            <parkingAreaReroute id="parkingArea_1010" visible="true"/> <!-- dist: 537.5600000000001 -->
            <parkingAreaReroute id="parkingArea_-1489" visible="true"/> <!-- dist: 539.54 -->
            <parkingAreaReroute id="parkingArea_-648" visible="false"/> <!-- dist: 543.1500000000001 -->
            <parkingAreaReroute id="parkingArea_2124" visible="false"/> <!-- dist: 547.19 -->
        </interval>
    </rerouter>

    <rerouter id="parkingArea_-15" edges="-15">
        <interval begin="0.0" end="86400">
            <!-- in order of distance -->
            <parkingAreaReroute id="parkingArea_-15" visible="true"/> <!-- dist: 0.0 -->
            <parkingAreaReroute id="parkingArea_3" visible="true"/> <!-- dist: 356.75 -->
            <parkingAreaReroute id="parkingArea_5" visible="true"/> <!-- dist: 356.95000000000005 -->
            <parkingAreaReroute id="parkingArea_11" visible="true"/> <!-- dist: 359.53 -->
            <parkingAreaReroute id="parkingArea_19" visible="true"/> <!-- dist: 534.95 -->
            <parkingAreaReroute id="parkingArea_23" visible="true"/> <!-- dist: 535.69 -->
            <parkingAreaReroute id="parkingArea_24" visible="true"/> <!-- dist: 536.82 -->
            <parkingAreaReroute id="parkingArea_27" visible="true"/> <!-- dist: 537.5 -->
            <parkingAreaReroute id="parkingArea_26" visible="true"/> <!-- dist: 537.77 -->
            <parkingAreaReroute id="parkingArea_29" visible="false"/> <!-- dist: 541.98 -->
            <parkingAreaReroute id="parkingArea_21" visible="false"/> <!-- dist: 542.03 -->
        </interval>
    </rerouter>

    <rerouter id="parkingArea_-1514" edges="-1514">
        <interval begin="0.0" end="86400">
            <!-- in order of distance -->
            <parkingAreaReroute id="parkingArea_-1514" visible="true"/> <!-- dist: 0.0 -->
            <parkingAreaReroute id="parkingArea_-400" visible="true"/> <!-- dist: 355.04999999999995 -->
            <parkingAreaReroute id="parkingArea_-781" visible="true"/> <!-- dist: 356.84000000000003 -->
            <parkingAreaReroute id="parkingArea_-412" visible="false"/> <!-- dist: 524.6600000000001 -->
            <parkingAreaReroute id="parkingArea_382" visible="true"/> <!-- dist: 533.1999999999999 -->
            <parkingAreaReroute id="parkingArea_782" visible="true"/> <!-- dist: 538.77 -->
            <parkingAreaReroute id="parkingArea_-268" visible="false"/> <!-- dist: 541.63 -->
            <parkingAreaReroute id="parkingArea_386" visible="false"/> <!-- dist: 549.2199999999999 -->
            <parkingAreaReroute id="parkingArea_412" visible="false"/> <!-- dist: 701.02 -->
            <parkingAreaReroute id="parkingArea_402" visible="false"/> <!-- dist: 702.33 -->
            <parkingAreaReroute id="parkingArea_-382" visible="false"/> <!-- dist: 702.8100000000001 -->
        </interval>
    </rerouter>

    <rerouter id="parkingArea_-1522" edges="-1522">
        <interval begin="0.0" end="86400">
            <!-- in order of distance -->
            <parkingAreaReroute id="parkingArea_-1522" visible="true"/> <!-- dist: 0.0 -->
            <parkingAreaReroute id="parkingArea_-1130" visible="true"/> <!-- dist: 368.83000000000004 -->
            <parkingAreaReroute id="parkingArea_1524" visible="true"/> <!-- dist: 376.29 -->
            <parkingAreaReroute id="parkingArea_-1133" visible="true"/> <!-- dist: 376.66 -->
            <parkingAreaReroute id="parkingArea_-752" visible="false"/> <!-- dist: 548.6300000000001 -->
            <parkingAreaReroute id="parkingArea_1132" visible="false"/> <!-- dist: 552.76 -->
            <parkingAreaReroute id="parkingArea_-2338" visible="false"/> <!-- dist: 556.55 -->
            <parkingAreaReroute id="parkingArea_-754" visible="false"/> <!-- dist: 559.02 -->
            <parkingAreaReroute id="parkingArea_-402" visible="false"/> <!-- dist: 726.3000000000001 -->
            <parkingAreaReroute id="parkingArea_780" visible="false"/> <!-- dist: 726.3400000000001 -->
            <parkingAreaReroute id="parkingArea_754" visible="false"/> <!-- dist: 730.9900000000001 -->
        </interval>
    </rerouter>

    <rerouter id="parkingArea_-1524" edges="-1524">