<?xml version="1.0" encoding="UTF-8"?>
<additional xmlns:xsi="http://www.w3.org/2001/XMLSchema-instance" xsi:noNamespaceSchemaLocation="http://sumo.dlr.de/xsd/additional_file.xsd">

    <parkingArea id="parkingArea_-1010" lane="-1010_1" startPos="10.0" endPos="-10.0" roadsideCapacity="20" friendlyPos="1" length="5.0"/>
    <parkingArea id="parkingArea_-1016" lane="-1016_1" startPos="10.0" endPos="-10.0" roadsideCapacity="20" friendlyPos="1" length="5.0"/>
    <parkingArea id="parkingArea_-1022" lane="-1022_1" startPos="10.0" endPos="-10.0" roadsideCapacity="20" friendlyPos="1" length="5.0"/>
    <parkingArea id="parkingArea_-11" lane="-11_1" startPos="10.0" endPos="-10.0" roadsideCapacity="20" friendlyPos="1" length="5.0"/>
    <parkingArea id="parkingArea_-1130" lane="-1130_1" startPos="10.0" endPos="-10.0" roadsideCapacity="20" friendlyPos="1" length="5.0"/>
    <parkingArea id="parkingArea_-1132" lane="-1132_1" startPos="10.0" endPos="-10.0" roadsideCapacity="20" friendlyPos="1" length="5.0"/>
    <parkingArea id="parkingArea_-1133" lane="-1133_1" startPos="10.0" endPos="-10.0" roadsideCapacity="20" friendlyPos="1" length="5.0"/>
    <parkingArea id="parkingArea_-1237" lane="-1237_1" startPos="10.0" endPos="-10.0" roadsideCapacity="20" friendlyPos="1" length="5.0"/>
    <parkingArea id="parkingArea_-1239" lane="-1239_1" startPos="10.0" endPos="-10.0" roadsideCapacity="20" friendlyPos="1" length="5.0"/>
    <parkingArea id="parkingArea_-1247" lane="-1247_1" startPos="10.0" endPos="-10.0" roadsideCapacity="20" friendlyPos="1" length="5.0"/>
    <parkingArea id="parkingArea_-1248" lane="-1248_1" startPos="10.0" endPos="-10.0" roadsideCapacity="20" friendlyPos="1" length="5.0"/>
    <parkingArea id="parkingArea_-1258" lane="-1258_1" startPos="10.0" endPos="-10.0" roadsideCapacity="20" friendlyPos="1" length="5.0"/>
    <parkingArea id="parkingArea_-1259" lane="-1259_1" startPos="10.0" endPos="-10.0" roadsideCapacity="20" friendlyPos="1" length="5.0"/>
    <parkingArea id="parkingArea_-1263" lane="-1263_1" startPos="10.0" endPos="-10.0" roadsideCapacity="20" friendlyPos="1" length="5.0"/>
    <parkingArea id="parkingArea_-1267" lane="-1267_1" startPos="10.0" endPos="-10.0" roadsideCapacity="20" friendlyPos="1" length="5.0"/>
    <parkingArea id="parkingArea_-1281" lane="-1281_1" startPos="10.0" endPos="-10.0" roadsideCapacity="20" friendlyPos="1" length="5.0"/>
    <parkingArea id="parkingArea_-1487" lane="-1487_1" startPos="10.0" endPos="-10.0" roadsideCapacity="20" friendlyPos="1" length="5.0"/>
    <parkingArea id="parkingArea_-1489" lane="-1489_1" startPos="10.0" endPos="-10.0" roadsideCapacity="20" friendlyPos="1" length="5.0"/>
    <parkingArea id="parkingArea_-1490" lane="-1490_1" startPos="10.0" endPos="-10.0" roadsideCapacity="20" friendlyPos="1" length="5.0"/>
    <parkingArea id="parkingArea_-1494" lane="-1494_1" startPos="10.0" endPos="-10.0" roadsideCapacity="20" friendlyPos="1" length="5.0"/>
    <parkingArea id="parkingArea_-1498" lane="-1498_1" startPos="10.0" endPos="-10.0" roadsideCapacity="20" friendlyPos="1" length="5.0"/>
    <parkingArea id="parkingArea_-15" lane="-15_1" startPos="10.0" endPos="-10.0" roadsideCapacity="20" friendlyPos="1" length="5.0"/>
    <parkingArea id="parkingArea_-1514" lane="-1514_1" startPos="10.0" endPos="-10.0" roadsideCapacity="20" friendlyPos="1" length="5.0"/>
    <parkingArea id="parkingArea_-1522" lane="-1522_1" startPos="10.0" endPos="-10.0" roadsideCapacity="20" friendlyPos="1" length="5.0"/>
    <parkingArea id="parkingArea_-1524" lane="-1524_1" startPos="10.0" endPos="-10.0" roadsideCapacity="20" friendlyPos="1" length="5.0"/>
    <parkingArea id="parkingArea_-158" lane="-158_1" startPos="10.0" endPos="-10.0" roadsideCapacity="20" friendlyPos="1" length="5.0"/>
    <parkingArea id="parkingArea_-1634" lane="-1634_1" startPos="10.0" endPos="-10.0" roadsideCapacity="20" friendlyPos="1" length="5.0"/>
    <parkingArea id="parkingArea_-1740" lane="-1740_1" startPos="10.0" endPos="-10.0" roadsideCapacity="20" friendlyPos="1" length="5.0"/>
    <parkingArea id="parkingArea_-1750" lane="-1750_1" startPos="10.0" endPos="-10.0" roadsideCapacity="20" friendlyPos="1" length="5.0"/>
    <parkingArea id="parkingArea_-1754" lane="-1754_1" startPos="10.0" endPos="-10.0" roadsideCapacity="20" friendlyPos="1" length="5.0"/>
    <parkingArea id="parkingArea_-1762" lane="-1762_1" startPos="10.0" endPos="-10.0" roadsideCapacity="20" friendlyPos="1" length="5.0"/>
    <parkingArea id="parkingArea_-1766" lane="-1766_1" startPos="10.0" endPos="-10.0" roadsideCapacity="20" friendlyPos="1" length="5.0"/>
    <parkingArea id="parkingArea_-1870" lane="-1870_1" startPos="10.0" endPos="-10.0" roadsideCapacity="20" friendlyPos="1" length="5.0"/>
    <parkingArea id="parkingArea_-1872" lane="-1872_1" startPos="10.0" endPos="-10.0" roadsideCapacity="20" friendlyPos="1" length="5.0"/>
    <parkingArea id="parkingArea_-1873" lane="-1873_1" startPos="10.0" endPos="-10.0" roadsideCapacity="20" friendlyPos="1" length="5.0"/>
    <parkingArea id="parkingArea_-1881" lane="-1881_1" startPos="10.0" endPos="-10.0" roadsideCapacity="20" friendlyPos="1" length="5.0"/>
    <parkingArea id="parkingArea_-1883" lane="-1883_1" startPos="10.0" endPos="-10.0" roadsideCapacity="20" friendlyPos="1" length="5.0"/>
    <parkingArea id="parkingArea_-19" lane="-19_1" startPos="10.0" endPos="-10.0" roadsideCapacity="20" friendlyPos="1" length="5.0"/>
    <parkingArea id="parkingArea_-1991" lane="-1991_1" startPos="10.0" endPos="-10.0" roadsideCapacity="20" friendlyPos="1" length="5.0"/>
    <parkingArea id="parkingArea_-1992" lane="-1992_1" startPos="10.0" endPos="-10.0" roadsideCapacity="20" friendlyPos="1" length="5.0"/>
    <parkingArea id="parkingArea_-1994" lane="-1994_1" startPos="10.0" endPos="-10.0" roadsideCapacity="20" friendlyPos="1" length="5.0"/>
    <parkingArea id="parkingArea_-2016" lane="-2016_1" startPos="10.0" endPos="-10.0" roadsideCapacity="20" friendlyPos="1" length="5.0"/>
    <parkingArea id="parkingArea_-21" lane="-21_1" startPos="10.0" endPos="-10.0" roadsideCapacity="20" friendlyPos="1" length="5.0"/>
    <parkingArea id="parkingArea_-2124" lane="-2124_1" startPos="10.0" endPos="-10.0" roadsideCapacity="20" friendlyPos="1" length="5.0"/>
    <parkingArea id="parkingArea_-2227" lane="-2227_1" startPos="10.0" endPos="-10.0" roadsideCapacity="20" friendlyPos="1" length="5.0"/>
    <parkingArea id="parkingArea_-2231" lane="-2231_1" startPos="10.0" endPos="-10.0" roadsideCapacity="20" friendlyPos="1" length="5.0"/>
    <parkingArea id="parkingArea_-2235" lane="-2235_1" startPos="10.0" endPos="-10.0" roadsideCapacity="20" friendlyPos="1" length="5.0"/>
    <parkingArea id="parkingArea_-23" lane="-23_1" startPos="10.0" endPos="-10.0" roadsideCapacity="20" friendlyPos="1" length="5.0"/>
    <parkingArea id="parkingArea_-2338" lane="-2338_1" startPos="10.0" endPos="-10.0" roadsideCapacity="20" friendlyPos="1" length="5.0"/>
    <parkingArea id="parkingArea_-2340" lane="-2340_1" startPos="10.0" endPos="-10.0" roadsideCapacity="20" friendlyPos="1" length="5.0"/>
    <parkingArea id="parkingArea_-2341" lane="-2341_1" startPos="10.0" endPos="-10.0" roadsideCapacity="20" friendlyPos="1" length="5.0"/>
    <parkingArea id="parkingArea_-2345" lane="-2345_1" startPos="10.0" endPos="-10.0" roadsideCapacity="20" friendlyPos="1" length="5.0"/>
    <parkingArea id="parkingArea_-2346" lane="-2346_1" startPos="10.0" endPos="-10.0" roadsideCapacity="20" friendlyPos="1" length="5.0"/>
    <parkingArea id="parkingArea_-2347" lane="-2347_1" startPos="10.0" endPos="-10.0" roadsideCapacity="20" friendlyPos="1" length="5.0"/>
    <parkingArea id="parkingArea_-2349" lane="-2349_1" startPos="10.0" endPos="-10.0" roadsideCapacity="20" friendlyPos="1" length="5.0"/>
    <parkingArea id="parkingArea_-2353" lane="-2353_1" startPos="10.0" endPos="-10.0" roadsideCapacity="20" friendlyPos="1" length="5.0"/>
    <parkingArea id="parkingArea_-2354" lane="-2354_1" startPos="10.0" endPos="-10.0" roadsideCapacity="20" friendlyPos="1" length="5.0"/>
    <parkingArea id="parkingArea_-2370" lane="-2370_1" startPos="10.0" endPos="-10.0" roadsideCapacity="20" friendlyPos="1" length="5.0"/>
    <parkingArea id="parkingArea_-2372" lane="-2372_1" startPos="10.0" endPos="-10.0" roadsideCapacity="20" friendlyPos="1" length="5.0"/>
    <parkingArea id="parkingArea_-2384" lane="-2384_1" startPos="10.0" endPos="-10.0" roadsideCapacity="20" friendlyPos="1" length="5.0"/>
    <parkingArea id="parkingArea_-2386" lane="-2386_1" startPos="10.0" endPos="-10.0" roadsideCapacity="20" friendlyPos="1" length="5.0"/>
    <parkingArea id="parkingArea_-2388" lane="-2388_1" startPos="10.0" endPos="-10.0" roadsideCapacity="20" friendlyPos="1" length="5.0"/>
    <parkingArea id="parkingArea_-2396" lane="-2396_1" startPos="10.0" endPos="-10.0" roadsideCapacity="20" friendlyPos="1" length="5.0"/>
    <parkingArea id="parkingArea_-2397" lane="-2397_1" startPos="10.0" endPos="-10.0" roadsideCapacity="20" friendlyPos="1" length="5.0"/>
    <parkingArea id="parkingArea_-24" lane="-24_1" startPos="10.0" endPos="-10.0" roadsideCapacity="20" friendlyPos="1" length="5.0"/>
    <parkingArea id="parkingArea_-2503" lane="-2503_1" startPos="10.0" endPos="-10.0" roadsideCapacity="20" friendlyPos="1" length="5.0"/>
    <parkingArea id="parkingArea_-2505" lane="-2505_1" startPos="10.0" endPos="-10.0" roadsideCapacity="20" friendlyPos="1" length="5.0"/>
    <parkingArea id="parkingArea_-26" lane="-26_1" startPos="10.0" endPos="-10.0" roadsideCapacity="20" friendlyPos="1" length="5.0"/>
    <parkingArea id="parkingArea_-2609" lane="-2609_1" startPos="10.0" endPos="-10.0" roadsideCapacity="20" friendlyPos="1" length="5.0"/>
    <parkingArea id="parkingArea_-2625" lane="-2625_1" startPos="10.0" endPos="-10.0" roadsideCapacity="20" friendlyPos="1" length="5.0"/>
    <parkingArea id="parkingArea_-2635" lane="-2635_1" startPos="10.0" endPos="-10.0" roadsideCapacity="20" friendlyPos="1" length="5.0"/>
    <parkingArea id="parkingArea_-268" lane="-268_1" startPos="10.0" endPos="-10.0" roadsideCapacity="20" friendlyPos="1" length="5.0"/>
    <parkingArea id="parkingArea_-27" lane="-27_1" startPos="10.0" endPos="-10.0" roadsideCapacity="20" friendlyPos="1" length="5.0"/>
    <parkingArea id="parkingArea_-2738" lane="-2738_1" startPos="10.0" endPos="-10.0" roadsideCapacity="20" friendlyPos="1" length="5.0"/>
    <parkingArea id="parkingArea_-2739" lane="-2739_1" startPos="10.0" endPos="-10.0" roadsideCapacity="20" friendlyPos="1" length="5.0"/>
    <parkingArea id="parkingArea_-2740" lane="-2740_1" startPos="10.0" endPos="-10.0" roadsideCapacity="20" friendlyPos="1" length="5.0"/>
    <parkingArea id="parkingArea_-2748" lane="-2748_1" startPos="10.0" endPos="-10.0" roadsideCapacity="20" friendlyPos="1" length="5.0"/>
    <parkingArea id="parkingArea_-2858" lane="-2858_1" startPos="10.0" endPos="-10.0" roadsideCapacity="20" friendlyPos="1" length="5.0"/>
    <parkingArea id="parkingArea_-29" lane="-29_1" startPos="10.0" endPos="-10.0" roadsideCapacity="20" friendlyPos="1" length="5.0"/>
    <parkingArea id="parkingArea_-2962" lane="-2962_1" startPos="10.0" endPos="-10.0" roadsideCapacity="20" friendlyPos="1" length="5.0"/>
    <parkingArea id="parkingArea_-2964" lane="-2964_1" startPos="10.0" endPos="-10.0" roadsideCapacity="20" friendlyPos="1" length="5.0"/>
    <parkingArea id="parkingArea_-2965" lane="-2965_1" startPos="10.0" endPos="-10.0" roadsideCapacity="20" friendlyPos="1" length="5.0"/>
    <parkingArea id="parkingArea_-3" lane="-3_1" startPos="10.0" endPos="-10.0" roadsideCapacity="20" friendlyPos="1" length="5.0"/>
    <parkingArea id="parkingArea_-3068" lane="-3068_1" startPos="10.0" endPos="-10.0" roadsideCapacity="20" friendlyPos="1" length="5.0"/>
    <parkingArea id="parkingArea_-3072" lane="-3072_1" startPos="10.0" endPos="-10.0" roadsideCapacity="20" friendlyPos="1" length="5.0"/>
    <parkingArea id="parkingArea_-3080" lane="-3080_1" startPos="10.0" endPos="-10.0" roadsideCapacity="20" friendlyPos="1" length="5.0"/>
    <parkingArea id="parkingArea_-3081" lane="-3081_1" startPos="10.0" endPos="-10.0" roadsideCapacity="20" friendlyPos="1" length="5.0"/>
    <parkingArea id="parkingArea_-3083" lane="-3083_1" startPos="10.0" endPos="-10.0" roadsideCapacity="20" friendlyPos="1" length="5.0"/>
    <parkingArea id="parkingArea_-3087" lane="-3087_1" startPos="10.0" endPos="-10.0" roadsideCapacity="20" friendlyPos="1" length="5.0"/>
    <parkingArea id="parkingArea_-3191" lane="-3191_1" startPos="10.0" endPos="-10.0" roadsideCapacity="20" friendlyPos="1" length="5.0"/>
    <parkingArea id="parkingArea_-3195" lane="-3195_1" startPos="10.0" endPos="-10.0" roadsideCapacity="20" friendlyPos="1" length="5.0"/>
    <parkingArea id="parkingArea_-3199" lane="-3199_1" startPos="10.0" endPos="-10.0" roadsideCapacity="20" friendlyPos="1" length="5.0"/>
    <parkingArea id="parkingArea_-3302" lane="-3302_1" startPos="10.0" endPos="-10.0" roadsideCapacity="20" friendlyPos="1" length="5.0"/>
    <parkingArea id="parkingArea_-3308" lane="-3308_1" startPos="10.0" endPos="-10.0" roadsideCapacity="20" friendlyPos="1" length="5.0"/>
    <parkingArea id="parkingArea_-3411" lane="-3411_1" startPos="10.0" endPos="-10.0" roadsideCapacity="20" friendlyPos="1" length="5.0"/>
    <parkingArea id="parkingArea_-3515" lane="-3515_1" startPos="10.0" endPos="-10.0" roadsideCapacity="20" friendlyPos="1" length="5.0"/>
    <parkingArea id="parkingArea_-3517" lane="-3517_1" startPos="10.0" endPos="-10.0" roadsideCapacity="20" friendlyPos="1" length="5.0"/>
    <parkingArea id="parkingArea_-3518" lane="-3518_1" startPos="10.0" endPos="-10.0" roadsideCapacity="20" friendlyPos="1" length="5.0"/>
    <parkingArea id="parkingArea_-3530" lane="-3530_1" startPos="10.0" endPos="-10.0" roadsideCapacity="20" friendlyPos="1" length="5.0"/>
    <parkingArea id="parkingArea_-3538" lane="-3538_1" startPos="10.0" endPos="-10.0" roadsideCapacity="20" friendlyPos="1" length="5.0"/>
    <parkingArea id="parkingArea_-3539" lane="-3539_1" startPos="10.0" endPos="-10.0" roadsideCapacity="20" friendlyPos="1" length="5.0"/>
    <parkingArea id="parkingArea_-3541" lane="-3541_1" startPos="10.0" endPos="-10.0" roadsideCapacity="20" friendlyPos="1" length="5.0"/>
    <parkingArea id="parkingArea_-3543" lane="-3543_1" startPos="10.0" endPos="-10.0" roadsideCapacity="20" friendlyPos="1" length="5.0"/>
    <parkingArea id="parkingArea_-3544" lane="-3544_1" startPos="10.0" endPos="-10.0" roadsideCapacity="20" friendlyPos="1" length="5.0"/>
    <parkingArea id="parkingArea_-3554" lane="-3554_1" startPos="10.0" endPos="-10.0" roadsideCapacity="20" friendlyPos="1" length="5.0"/>
    <parkingArea id="parkingArea_-3555" lane="-3555_1" startPos="10.0" endPos="-10.0" roadsideCapacity="20" friendlyPos="1" length="5.0"/>
    <parkingArea id="parkingArea_-3557" lane="-3557_1" startPos="10.0" endPos="-10.0" roadsideCapacity="20" friendlyPos="1" length="5.0"/>
    <parkingArea id="parkingArea_-3558" lane="-3558_1" startPos="10.0" endPos="-10.0" roadsideCapacity="20" friendlyPos="1" length="5.0"/>
    <parkingArea id="parkingArea_-3559" lane="-3559_1" startPos="10.0" endPos="-10.0" roadsideCapacity="20" friendlyPos="1" length="5.0"/>
    <parkingArea id="parkingArea_-3565" lane="-3565_1" startPos="10.0" endPos="-10.0" roadsideCapacity="20" friendlyPos="1" length="5.0"/>
    <parkingArea id="parkingArea_-3671" lane="-3671_1" startPos="10.0" endPos="-10.0" roadsideCapacity="20" friendlyPos="1" length="5.0"/>
    <parkingArea id="parkingArea_-3681" lane="-3681_1" startPos="10.0" endPos="-10.0" roadsideCapacity="20" friendlyPos="1" length="5.0"/>
    <parkingArea id="parkingArea_-372" lane="-372_1" startPos="10.0" endPos="-10.0" roadsideCapacity="20" friendlyPos="1" length="5.0"/>
    <parkingArea id="parkingArea_-373" lane="-373_1" startPos="10.0" endPos="-10.0" roadsideCapacity="20" friendlyPos="1" length="5.0"/>
    <parkingArea id="parkingArea_-3784" lane="-3784_1" startPos="10.0" endPos="-10.0" roadsideCapacity="20" friendlyPos="1" length="5.0"/>
    <parkingArea id="parkingArea_-379" lane="-379_1" startPos="10.0" endPos="-10.0" roadsideCapacity="20" friendlyPos="1" length="5.0"/>
    <parkingArea id="parkingArea_-3794" lane="-3794_1" startPos="10.0" endPos="-10.0" roadsideCapacity="20" friendlyPos="1" length="5.0"/>
    <parkingArea id="parkingArea_-3795" lane="-3795_1" startPos="10.0" endPos="-10.0" roadsideCapacity="20" friendlyPos="1" length="5.0"/>
    <parkingArea id="parkingArea_-3797" lane="-3797_1" startPos="10.0" endPos="-10.0" roadsideCapacity="20" friendlyPos="1" length="5.0"/>
    <parkingArea id="parkingArea_-3799" lane="-3799_1" startPos="10.0" endPos="-10.0" roadsideCapacity="20" friendlyPos="1" length="5.0"/>
    <parkingArea id="parkingArea_-381" lane="-381_1" startPos="10.0" endPos="-10.0" roadsideCapacity="20" friendlyPos="1" length="5.0"/>
    <parkingArea id="parkingArea_-382" lane="-382_1" startPos="10.0" endPos="-10.0" roadsideCapacity="20" friendlyPos="1" length="5.0"/>
    <parkingArea id="parkingArea_-386" lane="-386_1" startPos="10.0" endPos="-10.0" roadsideCapacity="20" friendlyPos="1" length="5.0"/>
    <parkingArea id="parkingArea_-3903" lane="-3903_1" startPos="10.0" endPos="-10.0" roadsideCapacity="20" friendlyPos="1" length="5.0"/>
    <parkingArea id="parkingArea_-3905" lane="-3905_1" startPos="10.0" endPos="-10.0" roadsideCapacity="20" friendlyPos="1" length="5.0"/>
    <parkingArea id="parkingArea_-3919" lane="-3919_1" startPos="10.0" endPos="-10.0" roadsideCapacity="20" friendlyPos="1" length="5.0"/>
    <parkingArea id="parkingArea_-400" lane="-400_1" startPos="10.0" endPos="-10.0" roadsideCapacity="20" friendlyPos="1" length="5.0"/>
    <parkingArea id="parkingArea_-402" lane="-402_1" startPos="10.0" endPos="-10.0" roadsideCapacity="20" friendlyPos="1" length="5.0"/>
    <parkingArea id="parkingArea_-4022" lane="-4022_1" startPos="10.0" endPos="-10.0" roadsideCapacity="20" friendlyPos="1" length="5.0"/>
    <parkingArea id="parkingArea_-4026" lane="-4026_1" startPos="10.0" endPos="-10.0" roadsideCapacity="20" friendlyPos="1" length="5.0"/>
    <parkingArea id="parkingArea_-4027" lane="-4027_1" startPos="10.0" endPos="-10.0" roadsideCapacity="20" friendlyPos="1" length="5.0"/>
    <parkingArea id="parkingArea_-4045" lane="-4045_1" startPos="10.0" endPos="-10.0" roadsideCapacity="20" friendlyPos="1" length="5.0"/>
    <parkingArea id="parkingArea_-41" lane="-41_1" startPos="10.0" endPos="-10.0" roadsideCapacity="20" friendlyPos="1" length="5.0"/>
    <parkingArea id="parkingArea_-412" lane="-412_1" startPos="10.0" endPos="-10.0" roadsideCapacity="20" friendlyPos="1" length="5.0"/>
    <parkingArea id="parkingArea_-4149" lane="-4149_1" startPos="10.0" endPos="-10.0" roadsideCapacity="20" friendlyPos="1" length="5.0"/>
    <parkingArea id="parkingArea_-4151" lane="-4151_1" startPos="10.0" endPos="-10.0" roadsideCapacity="20" friendlyPos="1" length="5.0"/>
    <parkingArea id="parkingArea_-42" lane="-42_1" startPos="10.0" endPos="-10.0" roadsideCapacity="20" friendlyPos="1" length="5.0"/>
    <parkingArea id="parkingArea_-4254" lane="-4254_1" startPos="10.0" endPos="-10.0" roadsideCapacity="20" friendlyPos="1" length="5.0"/>
    <parkingArea id="parkingArea_-4260" lane="-4260_1" startPos="10.0" endPos="-10.0" roadsideCapacity="20" friendlyPos="1" length="5.0"/>
    <parkingArea id="parkingArea_-4274" lane="-4274_1" startPos="10.0" endPos="-10.0" roadsideCapacity="20" friendlyPos="1" length="5.0"/>
    <parkingArea id="parkingArea_-4275" lane="-4275_1" startPos="10.0" endPos="-10.0" roadsideCapacity="20" friendlyPos="1" length="5.0"/>
    <parkingArea id="parkingArea_-4279" lane="-4279_1" startPos="10.0" endPos="-10.0" roadsideCapacity="20" friendlyPos="1" length="5.0"/>
    <parkingArea id="parkingArea_-4291" lane="-4291_1" startPos="10.0" endPos="-10.0" roadsideCapacity="20" friendlyPos="1" length="5.0"/>
    <parkingArea id="parkingArea_-4297" lane="-4297_1" startPos="10.0" endPos="-10.0" roadsideCapacity="20" friendlyPos="1" length="5.0"/>
    <parkingArea id="parkingArea_-43" lane="-43_1" startPos="10.0" endPos="-10.0" roadsideCapacity="20" friendlyPos="1" length="5.0"/>
    <parkingArea id="parkingArea_-4403" lane="-4403_1" startPos="10.0" endPos="-10.0" roadsideCapacity="20" friendlyPos="1" length="5.0"/>
    <parkingArea id="parkingArea_-4507" lane="-4507_1" startPos="10.0" endPos="-10.0" roadsideCapacity="20" friendlyPos="1" length="5.0"/>
    <parkingArea id="parkingArea_-4525" lane="-4525_1" startPos="10.0" endPos="-10.0" roadsideCapacity="20" friendlyPos="1" length="5.0"/>
    <parkingArea id="parkingArea_-4529" lane="-4529_1" startPos="10.0" endPos="-10.0" roadsideCapacity="20" friendlyPos="1" length="5.0"/>
    <parkingArea id="parkingArea_-4531" lane="-4531_1" startPos="10.0" endPos="-10.0" roadsideCapacity="20" friendlyPos="1" length="5.0"/>
    <parkingArea id="parkingArea_-4533" lane="-4533_1" startPos="10.0" endPos="-10.0" roadsideCapacity="20" friendlyPos="1" length="5.0"/>
    <parkingArea id="parkingArea_-4539" lane="-4539_1" startPos="10.0" endPos="-10.0" roadsideCapacity="20" friendlyPos="1" length="5.0"/>
    <parkingArea id="parkingArea_-4642" lane="-4642_1" startPos="10.0" endPos="-10.0" roadsideCapacity="20" friendlyPos="1" length="5.0"/>
    <parkingArea id="parkingArea_-4646" lane="-4646_1" startPos="10.0" endPos="-10.0" roadsideCapacity="20" friendlyPos="1" length="5.0"/>
    <parkingArea id="parkingArea_-4650" lane="-4650_1" startPos="10.0" endPos="-10.0" roadsideCapacity="20" friendlyPos="1" length="5.0"/>
    <parkingArea id="parkingArea_-4652" lane="-4652_1" startPos="10.0" endPos="-10.0" roadsideCapacity="20" friendlyPos="1" length="5.0"/>
    <parkingArea id="parkingArea_-4664" lane="-4664_1" startPos="10.0" endPos="-10.0" roadsideCapacity="20" friendlyPos="1" length="5.0"/>
    <parkingArea id="parkingArea_-4665" lane="-4665_1" startPos="10.0" endPos="-10.0" roadsideCapacity="20" friendlyPos="1" length="5.0"/>
    <parkingArea id="parkingArea_-4666" lane="-4666_1" startPos="10.0" endPos="-10.0" roadsideCapacity="20" friendlyPos="1" length="5.0"/>
    <parkingArea id="parkingArea_-4672" lane="-4672_1" startPos="10.0" endPos="-10.0" roadsideCapacity="20" friendlyPos="1" length="5.0"/>
    <parkingArea id="parkingArea_-4673" lane="-4673_1" startPos="10.0" endPos="-10.0" roadsideCapacity="20" friendlyPos="1" length="5.0"/>
    <parkingArea id="parkingArea_-4675" lane="-4675_1" startPos="10.0" endPos="-10.0" roadsideCapacity="20" friendlyPos="1" length="5.0"/>
    <parkingArea id="parkingArea_-4681" lane="-4681_1" startPos="10.0" endPos="-10.0" roadsideCapacity="20" friendlyPos="1" length="5.0"/>
    <parkingArea id="parkingArea_-4682" lane="-4682_1" startPos="10.0" endPos="-10.0" roadsideCapacity="20" friendlyPos="1" length="5.0"/>
    <parkingArea id="parkingArea_-4686" lane="-4686_1" startPos="10.0" endPos="-10.0" roadsideCapacity="20" friendlyPos="1" length="5.0"/>
    <parkingArea id="parkingArea_-4687" lane="-4687_1" startPos="10.0" endPos="-10.0" roadsideCapacity="20" friendlyPos="1" length="5.0"/>
    <parkingArea id="parkingArea_-4793" lane="-4793_1" startPos="10.0" endPos="-10.0" roadsideCapacity="20" friendlyPos="1" length="5.0"/>
    <parkingArea id="parkingArea_-4794" lane="-4794_1" startPos="10.0" endPos="-10.0" roadsideCapacity="20" friendlyPos="1" length="5.0"/>
    <parkingArea id="parkingArea_-4808" lane="-4808_1" startPos="10.0" endPos="-10.0" roadsideCapacity="20" friendlyPos="1" length="5.0"/>
    <parkingArea id="parkingArea_-4809" lane="-4809_1" startPos="10.0" endPos="-10.0" roadsideCapacity="20" friendlyPos="1" length="5.0"/>
    <parkingArea id="parkingArea_-4811" lane="-4811_1" startPos="10.0" endPos="-10.0" roadsideCapacity="20" friendlyPos="1" length="5.0"/>
    <parkingArea id="parkingArea_-4817" lane="-4817_1" startPos="10.0" endPos="-10.0" roadsideCapacity="20" friendlyPos="1" length="5.0"/>
    <parkingArea id="parkingArea_-49" lane="-49_1" startPos="10.0" endPos="-10.0" roadsideCapacity="20" friendlyPos="1" length="5.0"/>
    <parkingArea id="parkingArea_-4920" lane="-4920_1" startPos="10.0" endPos="-10.0" roadsideCapacity="20" friendlyPos="1" length="5.0"/>
    <parkingArea id="parkingArea_-4922" lane="-4922_1" startPos="10.0" endPos="-10.0" roadsideCapacity="20" friendlyPos="1" length="5.0"/>
    <parkingArea id="parkingArea_-4940" lane="-4940_1" startPos="10.0" endPos="-10.0" roadsideCapacity="20" friendlyPos="1" length="5.0"/>
    <parkingArea id="parkingArea_-4942" lane="-4942_1" startPos="10.0" endPos="-10.0" roadsideCapacity="20" friendlyPos="1" length="5.0"/>
    <parkingArea id="parkingArea_-4948" lane="-4948_1" startPos="10.0" endPos="-10.0" roadsideCapacity="20" friendlyPos="1" length="5.0"/>
    <parkingArea id="parkingArea_-5" lane="-5_1" startPos="10.0" endPos="-10.0" roadsideCapacity="20" friendlyPos="1" length="5.0"/>
    <parkingArea id="parkingArea_-5052" lane="-5052_1" startPos="10.0" endPos="-10.0" roadsideCapacity="20" friendlyPos="1" length="5.0"/>
    <parkingArea id="parkingArea_-51" lane="-51_1" startPos="10.0" endPos="-10.0" roadsideCapacity="20" friendlyPos="1" length="5.0"/>
    <parkingArea id="parkingArea_-5156" lane="-5156_1" startPos="10.0" endPos="-10.0" roadsideCapacity="20" friendlyPos="1" length="5.0"/>
    <parkingArea id="parkingArea_-5162" lane="-5162_1" startPos="10.0" endPos="-10.0" roadsideCapacity="20" friendlyPos="1" length="5.0"/>
    <parkingArea id="parkingArea_-518" lane="-518_1" startPos="10.0" endPos="-10.0" roadsideCapacity="20" friendlyPos="1" length="5.0"/>
    <parkingArea id="parkingArea_-52" lane="-52_1" startPos="10.0" endPos="-10.0" roadsideCapacity="20" friendlyPos="1" length="5.0"/>
    <parkingArea id="parkingArea_-520" lane="-520_1" startPos="10.0" endPos="-10.0" roadsideCapacity="20" friendlyPos="1" length="5.0"/>
    <parkingArea id="parkingArea_-5272" lane="-5272_1" startPos="10.0" endPos="-10.0" roadsideCapacity="20" friendlyPos="1" length="5.0"/>
    <parkingArea id="parkingArea_-5398" lane="-5398_1" startPos="10.0" endPos="-10.0" roadsideCapacity="20" friendlyPos="1" length="5.0"/>
    <parkingArea id="parkingArea_-5506" lane="-5506_1" startPos="10.0" endPos="-10.0" roadsideCapacity="20" friendlyPos="1" length="5.0"/>
    <parkingArea id="parkingArea_-5510" lane="-5510_1" startPos="10.0" endPos="-10.0" roadsideCapacity="20" friendlyPos="1" length="5.0"/>
    <parkingArea id="parkingArea_-5514" lane="-5514_1" startPos="10.0" endPos="-10.0" roadsideCapacity="20" friendlyPos="1" length="5.0"/>
    <parkingArea id="parkingArea_-5515" lane="-5515_1" startPos="10.0" endPos="-10.0" roadsideCapacity="20" friendlyPos="1" length="5.0"/>
    <parkingArea id="parkingArea_-5517" lane="-5517_1" startPos="10.0" endPos="-10.0" roadsideCapacity="20" friendlyPos="1" length="5.0"/>
    <parkingArea id="parkingArea_-5620" lane="-5620_1" startPos="10.0" endPos="-10.0" roadsideCapacity="20" friendlyPos="1" length="5.0"/>
    <parkingArea id="parkingArea_-5626" lane="-5626_1" startPos="10.0" endPos="-10.0" roadsideCapacity="20" friendlyPos="1" length="5.0"/>
    <parkingArea id="parkingArea_-5650" lane="-5650_1" startPos="10.0" endPos="-10.0" roadsideCapacity="20" friendlyPos="1" length="5.0"/>
    <parkingArea id="parkingArea_-5754" lane="-5754_1" startPos="10.0" endPos="-10.0" roadsideCapacity="20" friendlyPos="1" length="5.0"/>
    <parkingArea id="parkingArea_-5760" lane="-5760_1" startPos="10.0" endPos="-10.0" roadsideCapacity="20" friendlyPos="1" length="5.0"/>
    <parkingArea id="parkingArea_-5762" lane="-5762_1" startPos="10.0" endPos="-10.0" roadsideCapacity="20" friendlyPos="1" length="5.0"/>
    <parkingArea id="parkingArea_-5763" lane="-5763_1" startPos="10.0" endPos="-10.0" roadsideCapacity="20" friendlyPos="1" length="5.0"/>
    <parkingArea id="parkingArea_-5767" lane="-5767_1" startPos="10.0" endPos="-10.0" roadsideCapacity="20" friendlyPos="1" length="5.0"/>
    <parkingArea id="parkingArea_-5773" lane="-5773_1" startPos="10.0" endPos="-10.0" roadsideCapacity="20" friendlyPos="1" length="5.0"/>
    <parkingArea id="parkingArea_-5781" lane="-5781_1" startPos="10.0" endPos="-10.0" roadsideCapacity="20" friendlyPos="1" length="5.0"/>
    <parkingArea id="parkingArea_-5787" lane="-5787_1" startPos="10.0" endPos="-10.0" roadsideCapacity="20" friendlyPos="1" length="5.0"/>
    <parkingArea id="parkingArea_-5791" lane="-5791_1" startPos="10.0" endPos="-10.0" roadsideCapacity="20" friendlyPos="1" length="5.0"/>
    <parkingArea id="parkingArea_-5799" lane="-5799_1" startPos="10.0" endPos="-10.0" roadsideCapacity="20" friendlyPos="1" length="5.0"/>
    <parkingArea id="parkingArea_-5903" lane="-5903_1" startPos="10.0" endPos="-10.0" roadsideCapacity="20" friendlyPos="1" length="5.0"/>
    <parkingArea id="parkingArea_-5904" lane="-5904_1" startPos="10.0" endPos="-10.0" roadsideCapacity="20" friendlyPos="1" length="5.0"/>
    <parkingArea id="parkingArea_-5910" lane="-5910_1" startPos="10.0" endPos="-10.0" roadsideCapacity="20" friendlyPos="1" length="5.0"/>
    <parkingArea id="parkingArea_-5911" lane="-5911_1" startPos="10.0" endPos="-10.0" roadsideCapacity="20" friendlyPos="1" length="5.0"/>
    <parkingArea id="parkingArea_-5931" lane="-5931_1" startPos="10.0" endPos="-10.0" roadsideCapacity="20" friendlyPos="1" length="5.0"/>
    <parkingArea id="parkingArea_-6034" lane="-6034_1" startPos="10.0" endPos="-10.0" roadsideCapacity="20" friendlyPos="1" length="5.0"/>
    <parkingArea id="parkingArea_-6036" lane="-6036_1" startPos="10.0" endPos="-10.0" roadsideCapacity="20" friendlyPos="1" length="5.0"/>
    <parkingArea id="parkingArea_-6040" lane="-6040_1" startPos="10.0" endPos="-10.0" roadsideCapacity="20" friendlyPos="1" length="5.0"/>
    <parkingArea id="parkingArea_-6041" lane="-6041_1" startPos="10.0" endPos="-10.0" roadsideCapacity="20" friendlyPos="1" length="5.0"/>