<?xml version="1.0" encoding="UTF-8"?>

<!-- generated on Fri 14 Feb 2020 10:04:55 GMT by Eclipse SUMO netedit Version 1.5.0
<configuration xmlns:xsi="http://www.w3.org/2001/XMLSchema-instance" xsi:noNamespaceSchemaLocation="http://sumo.dlr.de/xsd/netconvertConfiguration.xsd">

    <input>
        <sumo-net-file value="random.net.xml"/>
    </input>

    <output>
        <output-file value="random.net.xml"/>
    </output>

    <processing>
        <geometry.min-radius.fix.railways value="false"/>
        <geometry.max-grade.fix value="false"/>
        <offset.disable-normalization value="true"/>
        <lefthand value="false"/>
    </processing>

    <junctions>
        <no-internal-links value="false"/>
        <no-turnarounds value="true"/>
        <junctions.corner-detail value="5"/>
        <junctions.limit-turn-speed value="5.5"/>
        <rectangular-lane-cut value="false"/>
    </junctions>

    <pedestrian>
        <walkingareas value="true"/>
    </pedestrian>

    <report>
        <aggregate-warnings value="5"/>
    </report>

</configuration>
-->

<net version="1.3" junctionCornerDetail="5" walkingareas="true" limitTurnSpeed="5.50" xmlns:xsi="http://www.w3.org/2001/XMLSchema-instance" xsi:noNamespaceSchemaLocation="http://sumo.dlr.de/xsd/net_file.xsd">

    <location netOffset="1799.80,1998.17" convBoundary="0.00,0.00,3794.89,3603.55" origBoundary="-1799.80,-1998.17,1995.09,1605.38" projParameter="!"/>

    <edge id=":1_0" function="internal">
        <lane id=":1_0_0" index="0" disallow="pedestrian" speed="6.55" length="4.87" shape="1812.20,2002.90,-12.21 1809.75,2003.24,-12.21 1808.00,2004.30,-12.21 1807.82,2004.60,-12.21"/>
    </edge>
    <edge id=":1_1" function="internal">
        <lane id=":1_1_0" index="0" disallow="pedestrian" speed="13.89" length="21.00" shape="1812.20,2002.90,-12.21 1791.21,2002.81,-12.21"/>
        <lane id=":1_1_1" index="1" disallow="pedestrian" speed="13.89" length="21.00" shape="1812.22,1999.70,-12.21 1791.21,1999.61,-12.21"/>
    </edge>
    <edge id=":1_3" function="internal">
        <lane id=":1_3_0" index="0" disallow="pedestrian" speed="9.44" length="6.88" shape="1812.22,1999.70,-12.21 1806.99,1998.90,-12.21 1805.63,1998.07,-12.21"/>
    </edge>
    <edge id=":1_16" function="internal">
        <lane id=":1_16_0" index="0" disallow="pedestrian" speed="6.55" length="4.26" shape="1807.82,2004.60,-12.21 1806.93,2006.08,-12.21 1806.55,2008.58,-12.21"/>
    </edge>
    <edge id=":1_17" function="internal">
        <lane id=":1_17_0" index="0" disallow="pedestrian" speed="9.44" length="12.74" shape="1805.63,1998.07,-12.21 1803.21,1996.59,-12.21 1800.87,1992.76,-12.21 1799.98,1987.42,-12.21"/>
    </edge>
    <edge id=":1_4" function="internal">
        <lane id=":1_4_0" index="0" disallow="pedestrian" speed="6.76" length="5.28" shape="1806.37,1987.24,-12.21 1806.81,1989.87,-12.21 1807.93,1991.76,-12.21 1808.28,1991.98,-12.21"/>
    </edge>
    <edge id=":1_5" function="internal">
        <lane id=":1_5_0" index="0" disallow="pedestrian" speed="13.89" length="21.28" shape="1806.37,1987.24,-12.21 1806.55,2008.58,-12.21"/>
        <lane id=":1_5_1" index="1" disallow="pedestrian" speed="13.89" length="21.28" shape="1803.18,1987.33,-12.21 1803.35,2008.54,-12.21"/>
    </edge>
    <edge id=":1_7" function="internal">
        <lane id=":1_7_0" index="0" disallow="pedestrian" speed="9.23" length="7.28" shape="1803.18,1987.33,-12.21 1802.56,1992.71,-12.21 1801.63,1994.33,-12.21"/>
    </edge>
    <edge id=":1_18" function="internal">
        <lane id=":1_18_0" index="0" disallow="pedestrian" speed="6.76" length="4.28" shape="1808.28,1991.98,-12.21 1809.75,1992.91,-12.21 1812.26,1993.30,-12.21"/>
    </edge>
    <edge id=":1_19" function="internal">
        <lane id=":1_19_0" index="0" disallow="pedestrian" speed="9.23" length="12.40" shape="1801.63,1994.33,-12.21 1800.36,1996.55,-12.21 1796.58,1998.85,-12.21 1791.21,1999.61,-12.21"/>
    </edge>
    <edge id=":1_8" function="internal">
        <lane id=":1_8_0" index="0" disallow="pedestrian" speed="6.47" length="4.85" shape="1791.23,1993.21,-12.21 1793.72,1992.85,-12.21 1795.47,1991.79,-12.21 1795.61,1991.54,-12.21"/>
    </edge>
    <edge id=":1_9" function="internal">
        <lane id=":1_9_0" index="0" disallow="pedestrian" speed="13.89" length="21.03" shape="1791.23,1993.21,-12.21 1812.26,1993.30,-12.21"/>
        <lane id=":1_9_1" index="1" disallow="pedestrian" speed="13.89" length="21.03" shape="1791.22,1996.41,-12.21 1812.24,1996.50,-12.21"/>
    </edge>
    <edge id=":1_11" function="internal">
        <lane id=":1_11_0" index="0" disallow="pedestrian" speed="9.28" length="7.10" shape="1791.22,1996.41,-12.21 1796.58,1997.17,-12.21 1798.02,1998.04,-12.21"/>
    </edge>
    <edge id=":1_20" function="internal">
        <lane id=":1_20_0" index="0" disallow="pedestrian" speed="6.47" length="4.28" shape="1795.61,1991.54,-12.21 1796.49,1990.01,-12.21 1796.78,1987.51,-12.21"/>
    </edge>
    <edge id=":1_21" function="internal">
        <lane id=":1_21_0" index="0" disallow="pedestrian" speed="9.28" length="12.51" shape="1798.02,1998.04,-12.21 1800.39,1999.45,-12.21 1802.65,2003.24,-12.21 1803.35,2008.54,-12.21"/>
    </edge>
    <edge id=":1_12" function="internal">
        <lane id=":1_12_0" index="0" disallow="pedestrian" speed="6.54" length="4.96" shape="1796.95,2008.46,-12.21 1796.62,2005.99,-12.21 1795.55,2004.23,-12.21 1795.20,2004.02,-12.21"/>
    </edge>
    <edge id=":1_13" function="internal">
        <lane id=":1_13_0" index="0" disallow="pedestrian" speed="13.89" length="21.01" shape="1796.95,2008.46,-12.21 1796.78,1987.51,-12.21"/>
        <lane id=":1_13_1" index="1" disallow="pedestrian" speed="13.89" length="21.01" shape="1800.15,2008.50,-12.21 1799.98,1987.42,-12.21"/>
    </edge>
    <edge id=":1_15" function="internal">
        <lane id=":1_15_0" index="0" disallow="pedestrian" speed="9.29" length="6.75" shape="1800.15,2008.50,-12.21 1800.96,2003.22,-12.21 1801.69,2002.01,-12.21"/>
    </edge>
    <edge id=":1_22" function="internal">
        <lane id=":1_22_0" index="0" disallow="pedestrian" speed="6.54" length="4.25" shape="1795.20,2004.02,-12.21 1793.75,2003.16,-12.21 1791.21,2002.81,-12.21"/>
    </edge>
    <edge id=":1_23" function="internal">
        <lane id=":1_23_0" index="0" disallow="pedestrian" speed="9.29" length="12.65" shape="1801.69,2002.01,-12.21 1803.25,1999.46,-12.21 1807.01,1997.22,-12.21 1812.24,1996.50,-12.21"/>
    </edge>
    <edge id=":1_c0" function="crossing" crossingEdges="5 -5">
        <lane id=":1_c0_0" index="0" allow="pedestrian" speed="1.00" length="12.80" width="4.00" shape="1810.28,1991.69,-12.37 1810.19,2004.49,-12.37"/>
    </edge>
    <edge id=":1_c1" function="crossing" crossingEdges="3 -3">
        <lane id=":1_c1_0" index="0" allow="pedestrian" speed="1.00" length="12.80" width="4.00" shape="1795.24,1989.55,-12.26 1808.03,1989.19,-12.26"/>
    </edge>
    <edge id=":1_c2" function="crossing" crossingEdges="11 -11">
        <lane id=":1_c2_0" index="0" allow="pedestrian" speed="1.00" length="12.80" width="4.00" shape="1793.20,2004.41,-12.05 1793.23,1991.61,-12.05"/>
    </edge>
    <edge id=":1_c3" function="crossing" crossingEdges="15 -15">
        <lane id=":1_c3_0" index="0" allow="pedestrian" speed="1.00" length="12.80" width="4.00" shape="1808.17,2006.60,-12.34 1795.37,2006.44,-12.34"/>
    </edge>
    <edge id=":1_w0" function="walkingarea">
        <lane id=":1_w0_0" index="0" allow="pedestrian" speed="1.00" length="3.36" width="4.00" shape="1808.15,2008.60,-12.34 1808.15,2008.60,-12.21 1810.15,2008.62,-12.21 1812.17,2006.50,-12.21 1812.19,2004.50,-12.21 1812.19,2004.50,-12.37 1810.97,2004.61,-12.21 1809.97,2004.94,-12.21 1809.18,2005.51,-12.21 1808.62,2006.31,-12.21 1808.27,2007.34,-12.21"/>
    </edge>
    <edge id=":1_w1" function="walkingarea">
        <lane id=":1_w1_0" index="0" allow="pedestrian" speed="1.00" length="3.65" width="4.00" shape="1812.28,1991.70,-12.37 1812.27,1991.70,-12.21 1812.29,1989.70,-12.21 1809.97,1987.13,-12.21 1807.97,1987.19,-12.21 1808.13,1988.56,-12.21 1808.51,1989.68,-12.21 1809.11,1990.56,-12.21 1809.94,1991.19,-12.21 1810.99,1991.57,-12.21"/>
    </edge>
    <edge id=":1_w2" function="walkingarea">
        <lane id=":1_w2_0" index="0" allow="pedestrian" speed="1.00" length="3.31" width="4.00" shape="1795.18,1987.55,-12.21 1793.18,1987.61,-12.21 1791.24,1989.61,-12.21 1791.23,1991.61,-12.21 1791.23,1991.61,-12.05 1792.47,1991.50,-12.21 1793.48,1991.16,-12.21 1794.25,1990.60,-12.21 1794.79,1989.81,-12.21 1795.10,1988.80,-12.21"/>
    </edge>
    <edge id=":1_w3" function="walkingarea">
        <lane id=":1_w3_0" index="0" allow="pedestrian" speed="1.00" length="3.38" width="4.00" shape="1791.20,2004.41,-12.05 1791.20,2004.41,-12.21 1791.20,2006.41,-12.21 1793.35,2008.41,-12.21 1795.35,2008.44,-12.21 1795.35,2008.44,-12.34 1795.25,2007.21,-12.21 1794.91,2006.20,-12.21 1794.34,2005.42,-12.21 1793.53,2004.86,-12.21 1792.48,2004.52,-12.21"/>
    </edge>
    <edge id=":10_0" function="internal">
        <lane id=":10_0_0" index="0" disallow="pedestrian" speed="6.80" length="5.48" shape="1595.25,2008.35,-27.08 1594.81,2005.71,-27.08 1593.66,2003.83,-27.08 1593.15,2003.52,-27.08"/>
    </edge>
    <edge id=":10_1" function="internal">
        <lane id=":10_1_0" index="0" disallow="pedestrian" speed="13.89" length="21.23" shape="1595.25,2008.35,-27.08 1594.91,1987.09,-27.08"/>
        <lane id=":10_1_1" index="1" disallow="pedestrian" speed="13.89" length="21.23" shape="1598.45,2008.26,-27.08 1598.11,1987.07,-27.08"/>
    </edge>
    <edge id=":10_3" function="internal">
        <lane id=":10_3_0" index="0" disallow="pedestrian" speed="9.23" length="7.14" shape="1598.45,2008.26,-27.08 1599.08,2002.89,-27.08 1599.94,2001.39,-27.08"/>
    </edge>
    <edge id=":10_16" function="internal">
        <lane id=":10_16_0" index="0" disallow="pedestrian" speed="6.80" length="4.21" shape="1593.15,2003.52,-27.08 1591.79,2002.69,-27.08 1589.21,2002.29,-27.08"/>
    </edge>
    <edge id=":10_17" function="internal">
        <lane id=":10_17_0" index="0" disallow="pedestrian" speed="9.23" length="12.52" shape="1599.94,2001.39,-27.08 1601.28,1999.05,-27.08 1605.06,1996.76,-27.08 1610.42,1996.00,-27.08"/>
    </edge>
    <edge id=":10_4" function="internal">
        <lane id=":10_4_0" index="0" disallow="pedestrian" speed="6.48" length="4.86" shape="1610.40,2002.40,-27.08 1607.92,2002.75,-27.08 1606.16,2003.82,-27.08 1606.02,2004.07,-27.08"/>
    </edge>
    <edge id=":10_5" function="internal">
        <lane id=":10_5_0" index="0" disallow="pedestrian" speed="13.89" length="21.18" shape="1610.40,2002.40,-27.08 1589.21,2002.29,-27.08"/>
        <lane id=":10_5_1" index="1" disallow="pedestrian" speed="13.89" length="21.18" shape="1610.41,1999.20,-27.08 1589.24,1999.09,-27.08"/>
    </edge>
    <edge id=":10_7" function="internal">
        <lane id=":10_7_0" index="0" disallow="pedestrian" speed="9.36" length="7.11" shape="1610.41,1999.20,-27.08 1605.05,1998.44,-27.08 1603.59,1997.57,-27.08"/>
    </edge>
    <edge id=":10_18" function="internal">
        <lane id=":10_18_0" index="0" disallow="pedestrian" speed="6.48" length="4.27" shape="1606.02,2004.07,-27.08 1605.14,2005.60,-27.08 1604.85,2008.09,-27.08"/>
    </edge>
    <edge id=":10_19" function="internal">
        <lane id=":10_19_0" index="0" disallow="pedestrian" speed="9.36" length="12.56" shape="1603.59,1997.57,-27.08 1601.22,1996.16,-27.08 1598.91,1992.37,-27.08 1598.11,1987.07,-27.08"/>
    </edge>
    <edge id=":10_8" function="internal">
        <lane id=":10_8_0" index="0" disallow="pedestrian" speed="6.64" length="5.16" shape="1604.51,1987.03,-27.08 1604.89,1989.55,-27.08 1606.01,1991.35,-27.08 1606.43,1991.61,-27.08"/>
    </edge>
    <edge id=":10_9" function="internal">
        <lane id=":10_9_0" index="0" disallow="pedestrian" speed="13.89" length="21.10" shape="1604.51,1987.03,-27.08 1604.85,2008.09,-27.08"/>
        <lane id=":10_9_1" index="1" disallow="pedestrian" speed="13.89" length="21.10" shape="1601.31,1987.05,-27.08 1601.65,2008.18,-27.08"/>
    </edge>
    <edge id=":10_11" function="internal">
        <lane id=":10_11_0" index="0" disallow="pedestrian" speed="9.25" length="6.85" shape="1601.31,1987.05,-27.08 1600.58,1992.36,-27.08 1599.82,1993.64,-27.08"/>
    </edge>
    <edge id=":10_20" function="internal">
        <lane id=":10_20_0" index="0" disallow="pedestrian" speed="6.64" length="4.24" shape="1606.43,1991.61,-27.08 1607.85,1992.44,-27.08 1610.42,1992.80,-27.08"/>
    </edge>
    <edge id=":10_21" function="internal">
        <lane id=":10_21_0" index="0" disallow="pedestrian" speed="9.25" length="12.66" shape="1599.82,1993.64,-27.08 1598.33,1996.13,-27.08 1594.54,1998.38,-27.08 1589.24,1999.09,-27.08"/>
    </edge>
    <edge id=":10_12" function="internal">
        <lane id=":10_12_0" index="0" disallow="pedestrian" speed="6.49" length="4.81" shape="1589.29,1992.69,-27.08 1591.76,1992.36,-27.08 1593.52,1991.31,-27.08 1593.66,1991.08,-27.08"/>
    </edge>
    <edge id=":10_13" function="internal">
        <lane id=":10_13_0" index="0" disallow="pedestrian" speed="13.89" length="21.14" shape="1589.29,1992.69,-27.08 1610.42,1992.80,-27.08"/>
        <lane id=":10_13_1" index="1" disallow="pedestrian" speed="13.89" length="21.14" shape="1589.26,1995.89,-27.08 1610.42,1996.00,-27.08"/>
    </edge>
    <edge id=":10_15" function="internal">
        <lane id=":10_15_0" index="0" disallow="pedestrian" speed="9.47" length="6.96" shape="1589.26,1995.89,-27.08 1594.56,1996.70,-27.08 1595.93,1997.53,-27.08"/>
    </edge>
    <edge id=":10_22" function="internal">
        <lane id=":10_22_0" index="0" disallow="pedestrian" speed="6.49" length="4.27" shape="1593.66,1991.08,-27.08 1594.57,1989.56,-27.08 1594.91,1987.09,-27.08"/>
    </edge>
    <edge id=":10_23" function="internal">
        <lane id=":10_23_0" index="0" disallow="pedestrian" speed="9.47" length="12.78" shape="1595.93,1997.53,-27.08 1598.39,1999.01,-27.08 1600.75,2002.84,-27.08 1601.65,2008.18,-27.08"/>
    </edge>
    <edge id=":10_c0" function="crossing" crossingEdges="29 -29">
        <lane id=":10_c0_0" index="0" allow="pedestrian" speed="1.00" length="12.80" width="4.00" shape="1606.40,2006.06,-27.30 1593.60,2006.40,-27.30"/>
    </edge>
    <edge id=":10_c1" function="crossing" crossingEdges="-11 11">
        <lane id=":10_c1_0" index="0" allow="pedestrian" speed="1.00" length="12.80" width="4.00" shape="1608.43,1991.20,-27.24 1608.41,2004.00,-27.24"/>
    </edge>
    <edge id=":10_c2" function="crossing" crossingEdges="27 -27">
        <lane id=":10_c2_0" index="0" allow="pedestrian" speed="1.00" length="12.80" width="4.00" shape="1593.32,1989.09,-27.28 1606.12,1989.01,-27.28"/>
    </edge>
    <edge id=":10_c3" function="crossing" crossingEdges="41 -41">
        <lane id=":10_c3_0" index="0" allow="pedestrian" speed="1.00" length="12.80" width="4.00" shape="1591.15,2003.91,-27.51 1591.26,1991.11,-27.51"/>
    </edge>
    <edge id=":10_w0" function="walkingarea">
        <lane id=":10_w0_0" index="0" allow="pedestrian" speed="1.00" length="3.71" width="4.00" shape="1589.15,2003.89,-27.51 1589.20,2003.89,-27.08 1589.18,2005.89,-27.08 1591.65,2008.44,-27.08 1593.65,2008.39,-27.08 1593.65,2008.40,-27.30 1593.50,2007.02,-27.08 1593.10,2005.91,-27.08 1592.48,2005.03,-27.08 1591.62,2004.41,-27.08 1590.52,2004.02,-27.08"/>
    </edge>
    <edge id=":10_w1" function="walkingarea">
        <lane id=":10_w1_0" index="0" allow="pedestrian" speed="1.00" length="3.31" width="4.00" shape="1606.45,2008.06,-27.30 1606.45,2008.05,-27.08 1608.45,2008.00,-27.08 1610.39,2006.00,-27.08 1610.40,2004.00,-27.08 1610.41,2004.00,-27.24 1609.16,2004.11,-27.08 1608.16,2004.45,-27.08 1607.38,2005.01,-27.08 1606.84,2005.80,-27.08 1606.53,2006.81,-27.08"/>
    </edge>
    <edge id=":10_w2" function="walkingarea">
        <lane id=":10_w2_0" index="0" allow="pedestrian" speed="1.00" length="3.52" width="4.00" shape="1610.43,1991.20,-27.24 1610.43,1991.20,-27.08 1610.43,1989.20,-27.08 1608.11,1987.01,-27.08 1606.11,1987.02,-27.08 1606.11,1987.01,-27.28 1606.24,1988.30,-27.08 1606.60,1989.34,-27.08 1607.20,1990.15,-27.08 1608.04,1990.74,-27.08 1609.11,1991.08,-27.08"/>
    </edge>
    <edge id=":10_w3" function="walkingarea">
        <lane id=":10_w3_0" index="0" allow="pedestrian" speed="1.00" length="3.30" width="4.00" shape="1593.31,1987.09,-27.28 1593.31,1987.10,-27.08 1591.31,1987.11,-27.08 1589.32,1989.09,-27.08 1589.31,1991.09,-27.08 1589.26,1991.09,-27.51 1590.54,1990.99,-27.08 1591.54,1990.66,-27.08 1592.32,1990.11,-27.08 1592.88,1989.33,-27.08 1593.21,1988.33,-27.08"/>
    </edge>
    <edge id=":1009_0" function="internal">
        <lane id=":1009_0_0" index="0" disallow="pedestrian" speed="13.89" length="20.69" shape="2396.90,1607.59,10.99 2396.71,1586.92,11.07"/>
        <lane id=":1009_0_1" index="1" disallow="pedestrian" speed="13.89" length="20.69" shape="2400.10,1607.58,10.99 2399.91,1586.87,11.07"/>
    </edge>
    <edge id=":1009_2" function="internal">
        <lane id=":1009_2_0" index="0" disallow="pedestrian" speed="9.25" length="6.91" shape="2400.10,1607.58,10.99 2400.83,1602.30,11.01 2401.63,1600.94,11.02"/>
    </edge>
    <edge id=":1009_8" function="internal">
        <lane id=":1009_8_0" index="0" disallow="pedestrian" speed="9.25" length="12.52" shape="2401.63,1600.94,11.02 2403.07,1598.53,11.03 2406.84,1596.28,11.05 2412.11,1595.54,11.07"/>
    </edge>
    <edge id=":1009_3" function="internal">
        <lane id=":1009_3_0" index="0" disallow="pedestrian" speed="6.50" length="4.77" shape="2412.10,1601.94,11.07 2409.64,1602.28,11.05 2407.88,1603.33,11.03 2407.76,1603.54,11.03"/>
    </edge>
    <edge id=":1009_4" function="internal">
        <lane id=":1009_4_0" index="0" disallow="pedestrian" speed="9.31" length="15.30" shape="2412.11,1598.74,11.07 2406.83,1597.98,11.07 2403.04,1595.76,11.07 2400.73,1592.05,11.07 2400.54,1590.86,11.07"/>
    </edge>
    <edge id=":1009_9" function="internal">
        <lane id=":1009_9_0" index="0" disallow="pedestrian" speed="6.50" length="4.28" shape="2407.76,1603.54,11.03 2406.84,1605.09,11.01 2406.50,1607.55,10.99"/>
    </edge>
    <edge id=":1009_10" function="internal">
        <lane id=":1009_10_0" index="0" disallow="pedestrian" speed="9.31" length="4.04" shape="2400.54,1590.86,11.07 2399.91,1586.87,11.07"/>
    </edge>
    <edge id=":1009_5" function="internal">
        <lane id=":1009_5_0" index="0" disallow="pedestrian" speed="6.58" length="4.92" shape="2406.30,1586.78,11.07 2406.70,1589.21,11.07 2407.80,1590.94,11.07 2408.15,1591.15,11.07"/>
    </edge>
    <edge id=":1009_6" function="internal">
        <lane id=":1009_6_0" index="0" disallow="pedestrian" speed="13.89" length="20.75" shape="2406.30,1586.78,11.07 2406.50,1607.55,10.99"/>
        <lane id=":1009_6_1" index="1" disallow="pedestrian" speed="13.89" length="20.75" shape="2403.11,1586.83,11.07 2403.30,1607.56,10.99"/>
    </edge>
    <edge id=":1009_11" function="internal">
        <lane id=":1009_11_0" index="0" disallow="pedestrian" speed="6.58" length="4.22" shape="2408.15,1591.15,11.07 2409.61,1591.99,11.07 2412.12,1592.34,11.07"/>
    </edge>
    <edge id=":1009_c0" function="crossing" crossingEdges="1992 -1992">
        <lane id=":1009_c0_0" index="0" allow="pedestrian" speed="1.00" length="12.80" width="4.00" shape="2408.09,1605.54,11.00 2395.29,1605.60,11.00"/>
    </edge>
    <edge id=":1009_c1" function="crossing" crossingEdges="1991 -1991">
        <lane id=":1009_c1_0" index="0" allow="pedestrian" speed="1.00" length="12.80" width="4.00" shape="2410.15,1590.73,11.39 2410.12,1603.53,11.39"/>
    </edge>
    <edge id=":1009_c2" function="crossing" crossingEdges="-1010 1010">
        <lane id=":1009_c2_0" index="0" allow="pedestrian" speed="1.00" length="12.80" width="4.00" shape="2395.13,1588.94,11.18 2407.93,1588.76,11.18"/>
    </edge>
    <edge id=":1009_w0" function="walkingarea">
        <lane id=":1009_w0_0" index="0" allow="pedestrian" speed="1.00" length="13.19" width="4.00" shape="2395.16,1590.94,11.18 2395.11,1586.94,11.18 2395.11,1586.94,11.07 2393.11,1586.97,11.07 2393.30,1607.61,10.99 2395.30,1607.60,10.99 2395.28,1603.60,11.00"/>
    </edge>
    <edge id=":1009_w1" function="walkingarea">
        <lane id=":1009_w1_0" index="0" allow="pedestrian" speed="1.00" length="3.30" width="4.00" shape="2408.10,1607.54,10.99 2410.10,1607.53,10.99 2412.09,1605.54,11.07 2412.09,1603.54,11.07 2412.12,1603.54,11.39 2410.87,1603.65,11.05 2409.86,1603.98,11.04 2409.09,1604.53,11.03 2408.53,1605.31,11.02 2408.20,1606.32,11.00"/>
    </edge>
    <edge id=":1009_w2" function="walkingarea">
        <lane id=":1009_w2_0" index="0" allow="pedestrian" speed="1.00" length="3.38" width="4.00" shape="2412.15,1590.74,11.39 2412.13,1590.74,11.07 2412.13,1588.74,11.07 2409.90,1586.73,11.07 2407.90,1586.76,11.07 2407.90,1586.76,11.18 2408.04,1587.97,11.07 2408.40,1588.97,11.07 2408.99,1589.74,11.07 2409.81,1590.29,11.07 2410.85,1590.62,11.07"/>
    </edge>
    <edge id=":1015_0" function="internal">
        <lane id=":1015_0_0" index="0" disallow="pedestrian" speed="13.89" length="21.10" shape="2609.05,1404.61,9.78 2587.91,1404.36,9.78"/>
        <lane id=":1015_0_1" index="1" disallow="pedestrian" speed="13.89" length="21.10" shape="2609.05,1401.41,9.78 2587.99,1401.16,9.78"/>
    </edge>
    <edge id=":1015_2" function="internal">
        <lane id=":1015_2_0" index="0" disallow="pedestrian" speed="9.29" length="7.09" shape="2609.05,1401.41,9.78 2603.79,1400.65,9.78 2602.27,1399.73,9.78"/>
    </edge>
    <edge id=":1015_9" function="internal">
        <lane id=":1015_9_0" index="0" disallow="pedestrian" speed="9.29" length="12.44" shape="2602.27,1399.73,9.78 2600.04,1398.37,9.78 2597.78,1394.55,9.78 2597.03,1389.21,9.78"/>
    </edge>
    <edge id=":1015_3" function="internal">
        <lane id=":1015_3_0" index="0" disallow="pedestrian" speed="6.55" length="4.89" shape="2603.43,1389.22,9.78 2603.78,1391.75,9.78 2604.83,1393.56,9.78 2605.04,1393.69,9.78"/>
    </edge>
    <edge id=":1015_4" function="internal">
        <lane id=":1015_4_0" index="0" disallow="pedestrian" speed="8.04" length="10.30" shape="2600.23,1389.22,9.78 2600.78,1393.15,9.78 2602.43,1395.96,9.78 2605.05,1397.56,9.78"/>
    </edge>
    <edge id=":1015_5" function="internal">
        <lane id=":1015_5_0" index="0" disallow="pedestrian" speed="9.24" length="15.58" shape="2600.23,1389.22,9.78 2599.47,1394.55,9.78 2597.17,1398.32,9.78 2593.34,1400.53,9.78 2592.00,1400.68,9.78"/>
    </edge>
    <edge id=":1015_10" function="internal">
        <lane id=":1015_10_0" index="0" disallow="pedestrian" speed="6.55" length="4.30" shape="2605.04,1393.69,9.78 2606.59,1394.65,9.78 2609.04,1395.01,9.78"/>
    </edge>
    <edge id=":1015_11" function="internal">
        <lane id=":1015_11_0" index="0" disallow="pedestrian" speed="8.04" length="4.06" shape="2605.05,1397.56,9.78 2605.19,1397.65,9.78 2609.04,1398.21,9.78"/>
    </edge>
    <edge id=":1015_12" function="internal">
        <lane id=":1015_12_0" index="0" disallow="pedestrian" speed="9.24" length="4.04" shape="2592.00,1400.68,9.78 2587.99,1401.16,9.78"/>
    </edge>
    <edge id=":1015_6" function="internal">
        <lane id=":1015_6_0" index="0" disallow="pedestrian" speed="6.48" length="4.83" shape="2588.15,1394.76,9.78 2590.63,1394.47,9.78 2592.41,1393.44,9.78 2592.55,1393.21,9.78"/>
    </edge>
    <edge id=":1015_7" function="internal">
        <lane id=":1015_7_0" index="0" disallow="pedestrian" speed="13.89" length="20.94" shape="2588.15,1394.76,9.78 2609.04,1395.01,9.78"/>
        <lane id=":1015_7_1" index="1" disallow="pedestrian" speed="13.89" length="20.94" shape="2588.07,1397.96,9.78 2609.04,1398.21,9.78"/>
    </edge>
    <edge id=":1015_13" function="internal">
        <lane id=":1015_13_0" index="0" disallow="pedestrian" speed="6.48" length="4.28" shape="2592.55,1393.21,9.78 2593.48,1391.69,9.78 2593.83,1389.21,9.78"/>
    </edge>
    <edge id=":1015_c0" function="crossing" crossingEdges="1487 -1487">
        <lane id=":1015_c0_0" index="0" allow="pedestrian" speed="1.00" length="12.80" width="4.00" shape="2607.04,1393.41,9.89 2607.06,1406.21,9.89"/>
    </edge>
    <edge id=":1015_c1" function="crossing" crossingEdges="1489 -1489">
        <lane id=":1015_c1_0" index="0" allow="pedestrian" speed="1.00" length="12.80" width="4.00" shape="2592.23,1391.21,9.82 2605.03,1391.22,9.82"/>
    </edge>
    <edge id=":1015_c2" function="crossing" crossingEdges="-1016 1016">
        <lane id=":1015_c2_0" index="0" allow="pedestrian" speed="1.00" length="12.80" width="4.00" shape="2589.87,1406.01,9.88 2590.18,1393.21,9.88"/>
    </edge>
    <edge id=":1015_w0" function="walkingarea">
        <lane id=":1015_w0_0" index="0" allow="pedestrian" speed="1.00" length="13.55" width="4.00" shape="2591.87,1406.06,9.88 2587.87,1405.96,9.88 2587.87,1405.96,9.78 2587.82,1407.96,9.78 2609.06,1408.21,9.78 2609.05,1406.21,9.78 2609.06,1406.21,9.89 2605.06,1406.21,9.89"/>
    </edge>
    <edge id=":1015_w1" function="walkingarea">
        <lane id=":1015_w1_0" index="0" allow="pedestrian" speed="1.00" length="3.38" width="4.00" shape="2609.04,1393.41,9.89 2609.04,1393.41,9.78 2609.03,1391.41,9.78 2607.03,1389.22,9.78 2605.03,1389.22,9.78 2605.14,1390.50,9.78 2605.48,1391.55,9.78 2606.03,1392.36,9.78 2606.81,1392.94,9.78 2607.81,1393.29,9.78"/>
    </edge>
    <edge id=":1015_w2" function="walkingarea">
        <lane id=":1015_w2_0" index="0" allow="pedestrian" speed="1.00" length="3.30" width="4.00" shape="2592.23,1389.21,9.78 2590.23,1389.21,9.78 2588.23,1391.16,9.78 2588.18,1393.16,9.78 2588.18,1393.16,9.88 2589.42,1393.08,9.78 2590.43,1392.77,9.78 2591.22,1392.22,9.78 2591.78,1391.45,9.78 2592.12,1390.45,9.78"/>
    </edge>
    <edge id=":1021_0" function="internal">
        <lane id=":1021_0_0" index="0" disallow="pedestrian" speed="6.74" length="5.29" shape="2412.29,1202.18,1.92 2409.74,1202.59,1.90 2407.90,1203.72,1.89 2407.62,1204.18,1.89"/>
    </edge>
    <edge id=":1021_1" function="internal">
        <lane id=":1021_1_0" index="0" disallow="pedestrian" speed="13.89" length="21.08" shape="2412.29,1202.18,1.92 2391.19,1202.38,2.02"/>
        <lane id=":1021_1_1" index="1" disallow="pedestrian" speed="13.89" length="21.08" shape="2412.24,1198.98,1.92 2391.18,1199.18,2.02"/>
    </edge>
    <edge id=":1021_3" function="internal">
        <lane id=":1021_3_0" index="0" disallow="pedestrian" speed="9.25" length="7.05" shape="2412.24,1198.98,1.92 2406.94,1198.31,1.92 2405.47,1197.45,1.92"/>
    </edge>
    <edge id=":1021_16" function="internal">
        <lane id=":1021_16_0" index="0" disallow="pedestrian" speed="6.74" length="4.25" shape="2407.62,1204.18,1.89 2406.78,1205.58,1.88 2406.37,1208.17,1.86"/>
    </edge>
    <edge id=":1021_17" function="internal">
        <lane id=":1021_17_0" index="0" disallow="pedestrian" speed="9.25" length="12.42" shape="2405.47,1197.45,1.92 2403.15,1196.09,1.92 2400.87,1192.34,1.92 2400.09,1187.05,1.92"/>
    </edge>
    <edge id=":1021_4" function="internal">
        <lane id=":1021_4_0" index="0" disallow="pedestrian" speed="6.50" length="4.78" shape="2406.49,1187.03,1.92 2406.85,1189.49,1.92 2407.91,1191.24,1.92 2408.13,1191.36,1.92"/>
    </edge>
    <edge id=":1021_5" function="internal">
        <lane id=":1021_5_0" index="0" disallow="pedestrian" speed="13.89" length="21.11" shape="2406.49,1187.03,1.92 2406.37,1208.17,1.86"/>
        <lane id=":1021_5_1" index="1" disallow="pedestrian" speed="13.89" length="21.11" shape="2403.29,1187.04,1.92 2403.17,1208.12,1.86"/>
    </edge>
    <edge id=":1021_7" function="internal">
        <lane id=":1021_7_0" index="0" disallow="pedestrian" speed="9.30" length="7.09" shape="2403.29,1187.04,1.92 2402.55,1192.33,1.95 2401.65,1193.84,1.95"/>
    </edge>
    <edge id=":1021_18" function="internal">
        <lane id=":1021_18_0" index="0" disallow="pedestrian" speed="6.50" length="4.28" shape="2408.13,1191.36,1.92 2409.68,1192.27,1.92 2412.15,1192.58,1.92"/>
    </edge>
    <edge id=":1021_19" function="internal">
        <lane id=":1021_19_0" index="0" disallow="pedestrian" speed="9.30" length="12.46" shape="2401.65,1193.84,1.95 2400.29,1196.12,1.97 2396.50,1198.40,1.99 2391.18,1199.18,2.02"/>
    </edge>
    <edge id=":1021_8" function="internal">
        <lane id=":1021_8_0" index="0" disallow="pedestrian" speed="6.57" length="4.95" shape="2391.16,1192.78,2.02 2393.67,1192.41,1.99 2395.47,1191.34,1.97 2395.63,1191.07,1.96"/>
    </edge>
    <edge id=":1021_9" function="internal">
        <lane id=":1021_9_0" index="0" disallow="pedestrian" speed="13.89" length="21.01" shape="2391.16,1192.78,2.02 2412.15,1192.58,1.92"/>
        <lane id=":1021_9_1" index="1" disallow="pedestrian" speed="13.89" length="21.01" shape="2391.17,1195.98,2.02 2412.20,1195.78,1.92"/>
    </edge>
    <edge id=":1021_11" function="internal">
        <lane id=":1021_11_0" index="0" disallow="pedestrian" speed="9.24" length="6.92" shape="2391.17,1195.98,2.02 2396.49,1196.72,1.97 2397.81,1197.52,1.96"/>
    </edge>
    <edge id=":1021_20" function="internal">
        <lane id=":1021_20_0" index="0" disallow="pedestrian" speed="6.57" length="4.28" shape="2395.63,1191.07,1.96 2396.54,1189.56,1.95 2396.89,1187.07,1.92"/>
    </edge>
    <edge id=":1021_21" function="internal">
        <lane id=":1021_21_0" index="0" disallow="pedestrian" speed="9.24" length="12.64" shape="2397.81,1197.52,1.96 2400.26,1198.99,1.94 2402.49,1202.79,1.90 2403.17,1208.12,1.86"/>
    </edge>
    <edge id=":1021_12" function="internal">
        <lane id=":1021_12_0" index="0" disallow="pedestrian" speed="6.49" length="4.81" shape="2396.77,1208.02,1.86 2396.46,1205.55,1.90 2395.42,1203.78,1.94 2395.20,1203.64,1.94"/>
    </edge>
    <edge id=":1021_13" function="internal">